86

C 17.501337748237937 -0.5516744689122888 0.0
C 16.01367077775756 -0.3597187840739542 0.0
N 14.526003807277188 -0.16776309923562316 0.0
C 13.806870512907297 1.1486134824949632 0.0
O 14.449145593661424 2.5041512800654635 0.0
C 12.332697577772946 0.8714598115516274 0.0
C 11.241978437325706 1.901183928323706 0.0
C 9.804851623087972 1.4714555026885123 0.0
C 8.714132482640736 2.5011796194605935 0.0
C 7.277005668403 2.071451193825399 0.0
C 6.930597994612503 0.611998651418125 0.0
C 5.493471180374769 0.1822702257829314 0.0
C 4.996406832596628 -1.2329778210865534 0.0
C 3.496824624686071 -1.1975772318527742 0.0
C 3.0670961990508774 0.23954958238495938 0.0
S 4.3010916339869025 1.0923422104939557 0.0
C 1.5675139911403195 0.2749501716187367 0.0
C 0.5904054037841044 1.413044547544892 0.0
C -0.8837675313502491 1.1358908766015607 0.0
C -1.380831879128388 -0.27935717026792406 0.0
C -0.4037232917721739 -1.417451546194079 0.0
C 1.0704496433621797 -1.1402978752507482 0.0
C 2.262829189750047 -2.050369859961771 0.0
C 1.2331050729779685 -3.1410890004090093 0.0
C -2.880414087038945 -0.24395658103414863 0.0
S -4.114409521974969 -1.096749209143148 0.0
C -5.306789068362837 -0.1866772244321253 0.0
C -6.7439158826005725 -0.6164056500673247 0.0
C -7.0903235563910645 -2.075858192474599 0.0
C -8.527450370628797 -2.5055866181097977 0.0
C -9.618169511076037 -1.4758625013377213 0.0
C -11.055296325313769 -1.9055909269729177 0.0
C -12.146015465761012 -0.87586681020084 0.0
S -11.954059780922677 0.6118001602795262 0.0
C -13.309597578493179 1.2540752410336573 0.0
S -13.58675124943651 2.728248176168009 0.0
N -14.339321695265255 0.16335610058640881 0.0
C -15.82698866574562 0.3553117854247443 0.0
C -17.31465563622599 0.5472674702630833 0.0
C -13.620188400895362 -1.1530204811441767 0.0
O -14.262463481649483 -2.508558278714669 0.0
C -9.271761837285544 -0.016409958930444724 0.0
N -10.124554465394544 1.2175854760055769 0.0
S -9.214482480683522 2.4099650223934477 0.0
N -7.799234433814038 1.9129006746153099 0.0
C -7.834635023047811 0.41331846670475425 0.0
C -4.809724720584699 1.2285708224373606 0.0
C -3.3101425126741413 1.1931702332035832 0.0
C -2.0761470777381184 2.045962861312583 0.0
C -3.053255665094333 3.1840572372387363 0.0
C 8.02131713505974 -0.4177254653539557 0.0
N 7.98591654582596 -1.9173076732645122 0.0
S 9.401164592695444 -2.4143720210426545 0.0
N 10.31123657740647 -1.2219924746547894 0.0
C 9.458443949297472 0.012002960281236597 0.0
S 12.14074189293461 -0.6162071589287486 0.0
C 13.496279690505116 -1.258482239682868 0.0
S 13.773433361448447 -2.732655174817225 0.0
H 18.989004718718306 -0.7436301537506189 0.0
H 17.693293433076263 0.9359925015680863 0.0
H 17.309382063399596 -2.039341439392662 0.0
H 16.20562646259589 1.1279481864064183 0.0
H 15.821715092919234 -1.8473857545543293 0.0
H 11.588386111116197 3.36063647073098 0.0
H 9.060540156431234 3.960632161867868 0.0
H 6.186286527955763 3.1011753105974798 0.0
H 5.849199460705625 -2.4669732560225786 0.0
H 1.0874697515622422 2.8282925944143766 0.0
H -0.900787639550312 -2.8326995930635643 0.0
H 3.2399377771062605 -3.1884642358879263 0.0
H 0.20338095620588925 -4.231808140856247 0.0
H 2.3238242134252065 -4.170813117181088 0.0
H 0.14238593253072962 -2.1113648836369303 0.0
H -5.999604415943826 -3.1055823092466763 0.0
H -8.873858044419288 -3.9650391605170725 0.0
H -11.401703999104262 -3.365043469380193 0.0
H -15.635032980907289 1.8429787559051203 0.0
H -16.018944350583954 -1.1323551850556246 0.0
H -18.80232260670637 0.7392231551014135 0.0
H -17.12269995138766 2.0349344407434478 0.0
H -17.50661132106433 -0.9403995002172909 0.0
H -5.662517348693697 2.4625662573733846 0.0
H -1.0464229609660416 3.1366820017598216 0.0
H -4.030364252450548 4.322151613164889 0.0
H -1.9151612891681795 4.161165824594951 0.0
H -4.191350041020486 2.2069486498825213 0.0
