57

C -5.0755936678885 4.462950855518926 0.0
C -3.6256920645866755 4.078522265605552 0.0
C -3.2336661877417696 2.6306563492016917 0.0
C -4.291541914198694 1.5672190227112095 0.0
C -5.741443517500522 1.951647612624585 0.0
C -6.133469394345424 3.399513529028442 0.0
S -6.799319243957449 0.8882102861340955 0.0
C -6.407293367112544 -0.5596556302697611 0.0
C -7.4651690935694734 -1.623092956760245 0.0
C -7.073143216724567 -3.0709588731641033 0.0
C -5.623241613422741 -3.4553874630774732 0.0
C -4.565365886965816 -2.391950136586991 0.0
C -4.957391763810721 -0.9440842201831323 0.0
N -3.899516037353796 0.11935310630735452 0.0
C -2.4496144340519663 -0.26507548360602273 0.0
C -2.0575885572070662 -1.7129414000098833 0.0
C -0.6076869539052379 -2.0973699899232603 0.0
C 0.4501887725516902 -1.0339326634327763 0.0
C 1.90009037585352 -1.4183612533461538 0.0
C 2.2921162526984196 -2.866227169750014 0.0
C 3.742017856000248 -3.2506557596633905 0.0
C 4.799893582457177 -2.187218433172908 0.0
C 6.249795185759007 -2.5716470230862845 0.0
C 7.307670912215936 -1.5082096965958014 0.0
C 6.915645035371035 -0.060343780191941754 0.0
C 7.973520761827963 1.0030935462985422 0.0
C 7.581494884983062 2.450959462702402 0.0
C 6.1315932816812335 2.835388052615778 0.0
C 5.073717555224305 1.7719507261252934 0.0
C 3.6238159519224773 2.1563793160386715 0.0
C 2.565940225465549 1.0929419895481884 0.0
C 2.957966102310449 -0.35492392685567165 0.0
C 4.407867705612277 -0.7393525167690478 0.0
C 5.465743432069206 0.32408480972143483 0.0
C 0.05816289570679095 0.41393325297108263 0.0
C -1.3917387075950374 0.7983618428844595 0.0
H -5.4676195447334095 5.910816771922785 0.0
H -2.5678163381297407 5.141959592096034 0.0
H -2.2587344993590124 2.4962709873234576 0.0
H -7.583370997647253 3.7839421189418125 0.0
H -8.915070696871302 -1.2386643668468738 0.0
H -8.131018943181497 -4.13439619965459 0.0
H -5.231215736577835 -4.903253379481335 0.0
H -3.6519243417811214 -2.7582502403688474 0.0
H -2.6614355386817636 -2.4900643281646886 0.0
H -0.21566107706033688 -3.5452359063271195 0.0
H 1.2342405262414915 -3.9296644962404974 0.0
H 4.134043732845148 -4.69852167606725 0.0
H 6.641821062603906 -4.019512939490141 0.0
H 8.757572515517765 -1.8926382865091784 0.0
H 9.423422365129792 0.6186649563851683 0.0
H 8.63937061143999 3.514396789192884 0.0
H 5.7395674048363325 4.283253969019637 0.0
H 3.231790075077577 3.6042452324425307 0.0
H 1.6524986802808566 1.459242093330049 0.0
H 0.6620098771814875 1.191056181125887 0.0
H -1.5312342849034157 1.772575477777445 0.0
