32

C         -1.40201       -0.08157        0.42589
C         -0.87676        1.10229       -0.08481
C          0.48791        1.19555       -0.37244
C          1.35254        0.10893       -0.15561
C          2.78929        0.20790       -0.46711
C          3.56510        1.27393        0.01025
C          4.92859        1.37420       -0.29761
C          5.56834        0.41493       -1.09752
C          7.00075        0.52950       -1.43662
C          7.55275        1.75194       -1.85905
C          8.90759        1.86222       -2.18636
C          9.73822        0.74885       -2.10076
C          9.21569       -0.47268       -1.68576
C          7.86114       -0.57946       -1.35542
C          4.79111       -0.65407       -1.56936
C          3.42850       -0.75675       -1.25880
C          0.80052       -1.07537        0.36154
C         -0.56407       -1.17072        0.64975
H         -2.46311       -0.15535        0.64866
H         -1.52769        1.95390       -0.26425
H          0.87335        2.12605       -0.78453
H          3.11497        2.03738        0.64180
H          5.49159        2.21230        0.10846
H          6.92241        2.63405       -1.95157
H          9.31003        2.81782       -2.51211
H         10.79082        0.83285       -2.35747
H          9.86070       -1.34462       -1.61578
H          7.48216       -1.54283       -1.02031
H          5.23629       -1.41574       -2.20637
H          2.86307       -1.59446       -1.66241
H          1.43792       -1.93570        0.55543
H         -0.96979       -2.09585        1.05071
