36

C          0.98363        0.02207        0.04630
C         -0.21813        0.01549        0.06894
C         -1.66105        0.01027        0.08669
C         -2.35299       -1.23609        0.09246
C         -1.71313       -2.50156        0.09024
C         -2.43821       -3.69529        0.09509
C         -3.82503       -3.65950        0.10184
C         -4.48326       -2.43120        0.10452
C         -3.76547       -1.22223        0.10043
C         -4.44977        0.00102        0.10363
C         -3.77367        1.22881        0.10028
C         -4.49944        2.43302        0.10422
C         -3.84937        3.66567        0.10138
C         -2.46284        3.71066        0.09463
C         -1.72993        2.52175        0.08994
C         -2.36135        1.25202        0.09231
C          2.41311        0.03257        0.01130
C          3.10340        1.24683       -0.00700
C          4.49914        1.25681       -0.04598
C          5.20513        0.05403       -0.06659
C          4.51755       -1.15944       -0.04778
C          3.12179       -1.17095       -0.00879
H         -0.62722       -2.56966        0.08519
H         -1.91560       -4.64812        0.09347
H         -4.39596       -4.58405        0.10515
H         -5.57148       -2.42465        0.10981
H         -5.53916       -0.00261        0.10915
H         -5.58759        2.41927        0.10950
H         -4.42639        4.58643        0.10457
H         -1.94650        4.66690        0.09289
H         -0.64451        2.59712        0.08488
H          2.56083        2.18873        0.00786
H          5.03502        2.20230       -0.06097
H          6.29175        0.06237       -0.09770
H          5.06789       -2.09657       -0.06416
H          2.59369       -2.12105        0.00465
