26

C          1.05483        0.10971       -0.23600
C          0.25254        1.02682        0.32879
C         -1.21184        1.02127        0.20150
C         -1.96280       -0.16057        0.25040
C         -3.35655       -0.12168        0.15661
C         -4.01383        1.09956        0.02358
C         -3.27924        2.28280       -0.00989
C         -1.88575        2.24397        0.08473
C          2.51953        0.11424       -0.11066
C          3.27069        1.29646       -0.14647
C          4.66467        1.25635       -0.05611
C          5.32217        0.03357        0.06020
C          4.58755       -1.14991        0.08054
C          3.19383       -1.10979       -0.01047
H          0.64046       -0.70552       -0.82409
H          0.66569        1.84254        0.91691
H         -1.47283       -1.12305        0.37408
H         -3.92793       -1.04546        0.19346
H         -5.09783        1.12939       -0.04849
H         -3.78962        3.23725       -0.10832
H         -1.32969        3.17826        0.05687
H          2.78095        2.26057       -0.25741
H          5.23601        2.18051       -0.08276
H          6.40633        0.00281        0.12935
H          5.09807       -2.10556        0.16575
H          2.63796       -2.04446        0.00674
