44

C         -1.40441       -0.14187        0.43094
C         -0.83491        1.12103        0.28280
C          0.52774        1.24520        0.00015
C          1.34045        0.10900       -0.13378
C          2.76923        0.23587       -0.44161
C          3.19264        0.70701       -1.69250
C          4.55336        0.79901       -2.00084
C          5.52841        0.43520       -1.06040
C          6.96814        0.51220       -1.39898
C          7.64362        1.77555       -1.36900
C          7.02411        2.99678       -1.00067
C          7.71628        4.21031       -0.99964
C          9.05415        4.24091       -1.36305
C          9.69694        3.05762       -1.71895
C          9.01121        1.83016       -1.72272
C          9.68651        0.65675       -2.07755
C          9.04611       -0.58736       -2.10144
C          9.76813       -1.73945       -2.46033
C          9.15620       -2.99008       -2.50138
C          7.81011       -3.10354       -2.18935
C          7.08233       -1.96574       -1.83291
C          7.67535       -0.67878       -1.76945
C          5.10639       -0.01825        0.19799
C          3.74441       -0.12348        0.49991
C          0.75069       -1.15531        0.02264
C         -0.61257       -1.28051        0.30050
H         -2.46512       -0.23873        0.64707
H         -1.45026        2.01080        0.38672
H          0.95829        2.23843       -0.10940
H          2.45946        0.98990       -2.44521
H          4.85310        1.15367       -2.98518
H          5.97724        3.01567       -0.70320
H          7.20542        5.12601       -0.71429
H          9.59916        5.18078       -1.36721
H         10.74829        3.10101       -1.99689
H         10.74150        0.71345       -2.34324
H         10.82420       -1.66971       -2.71384
H          9.72967       -3.86989       -2.77964
H          7.31976       -4.07275       -2.22218
H          6.02685       -2.09836       -1.60252
H          5.84171       -0.30502        0.94737
H          3.44640       -0.48709        1.48133
H          1.35427       -2.05428       -0.08520
H         -1.05485       -2.26704        0.41125
