41

C        -13.18634      -10.43903       -0.49463
C        -13.78493       -9.19751       -0.28551
C        -13.00444       -8.03884       -0.15135
C        -13.59347       -6.78556        0.05367
C        -12.80552       -5.64070        0.19106
C        -11.40742       -5.71994        0.13901
C        -10.61530       -4.57525        0.29663
C         -9.22396       -4.66707        0.28831
C         -8.59726       -5.90593        0.10521
C         -7.13799       -5.99075        0.22622
C         -6.40910       -6.53191        1.28164
C         -5.04067       -6.61724        0.95203
C         -3.81469       -7.19555        1.58615
C         -2.82517       -6.97950        0.46723
C         -1.56962       -7.35447        0.20655
C         -1.20012       -6.88161       -1.14309
S         -2.50604       -6.02386       -1.94660
C         -3.50238       -6.25329       -0.59380
C         -4.78774       -6.09397       -0.29255
S         -6.12398       -5.48981       -1.08510
C         -9.37625       -7.07796       -0.10515
C         -8.81447       -8.35237       -0.34714
C         -9.60570       -9.48939       -0.51154
C        -10.99554       -9.39860       -0.43802
C        -11.79957      -10.53833       -0.57523
C        -11.59536       -8.13659       -0.22111
C        -10.78866       -6.97658       -0.06697
H        -13.80058      -11.32983       -0.59560
H        -14.86947       -9.14112       -0.22651
H        -14.67543       -6.68837        0.10923
H        -13.29805       -4.68358        0.34923
H        -11.07624       -3.60161        0.44935
H         -8.63042       -3.76913        0.44667
H         -6.86582       -6.90923        2.18872
H         -3.53622       -6.63956        2.48565
H         -3.94709       -8.25807        1.80996
H         -0.91535       -7.93463        0.83509
H         -0.20342       -7.08486       -1.55381
H         -7.73585       -8.47735       -0.42076
H         -9.11892      -10.44459       -0.69396
H        -11.34894      -11.51431       -0.74147
