29

C         -2.07093       -1.74515       -0.45663
C         -2.35231       -1.60126        0.89828
C         -1.47070       -0.92271        1.74546
C         -0.29466       -0.38981        1.19170
S          0.97426        0.47562        1.96411
C          1.80234        0.61931        0.46549
C          3.06360        1.30787        0.30305
C          3.59485        1.74747       -0.91082
C          4.84352        2.37812       -0.72762
C          5.88502        3.04821       -1.60449
C          6.90412        3.40722       -0.53796
C          8.16472        4.04061       -0.49194
C          8.63938        4.07981        0.81171
S          7.54843        3.35341        1.94722
C          6.48544        3.00474        0.71688
C          5.22180        2.37711        0.59971
S          4.13036        1.66710        1.62985
N          1.19044        0.07573       -0.56726
C          0.00406       -0.51392       -0.16527
C         -0.89921       -1.20560       -0.99768
H         -2.76468       -2.27891       -1.10203
H         -3.26889       -2.02278        1.30617
H         -1.69029       -0.81240        2.80310
H          3.08917        1.61338       -1.86020
H          6.30050        2.35153       -2.33717
H          5.48306        3.94239       -2.08854
H          8.70433        4.44385       -1.33950
H          9.57229        4.49616        1.16619
H         -0.67641       -1.31451       -2.05444
