49

C         -2.14784       -2.18577        0.73868
C         -2.65274       -0.92967        1.05943
C         -1.83205        0.20220        1.02741
C         -0.48536        0.03658        0.66279
S          0.75711        1.21533        0.53142
C          1.88687        0.00240        0.05903
C          3.29785        0.31969       -0.25323
C          3.84765        1.60654       -0.15741
C          5.19442        1.84406       -0.46993
C          6.03900        0.80659       -0.88988
C          7.44986        1.06124       -1.22156
C          8.30356        1.70405       -0.31245
C          9.64525        1.94940       -0.62947
C         10.17128        1.56467       -1.86907
C         11.58361        1.82265       -2.17997
C         12.70030        1.61691       -1.37053
C         13.88549        2.01115       -2.02772
C         15.36947        2.03818       -1.71153
C         15.88430        2.62886       -3.01160
C         17.13767        2.98618       -3.55364
C         16.98287        3.49768       -4.83453
S         15.32732        3.53313       -5.34945
C         14.85123        2.88271       -3.89488
C         13.62775        2.50372       -3.29149
S         12.02282        2.51095       -3.71743
C          9.32563        0.91742       -2.77821
C          7.98479        0.67037       -2.45834
C          5.49209       -0.47963       -0.98509
C          4.14762       -0.71738       -0.67136
N          1.38348       -1.21619       -0.00185
C          0.04206       -1.21163        0.33739
C         -0.80512       -2.33761        0.37719
H         -2.79813       -3.05693        0.76789
H         -3.69915       -0.82474        1.33878
H         -2.22699        1.18208        1.27761
H          3.24854        2.45683        0.15794
H          5.57674        2.86078       -0.39478
H          7.93072        2.01338        0.66211
H         10.27168        2.45630        0.10109
H         12.64729        1.19832       -0.37313
H         15.76145        1.03089       -1.54759
H         15.58525        2.69222       -0.86252
H         18.09564        2.88487       -3.05959
H         17.75291        3.85589       -5.50386
H          9.69952        0.59010       -3.74593
H          7.35438        0.17601       -3.19524
H          6.11251       -1.31819       -1.29578
H          3.76384       -1.73361       -0.75654
H         -0.40625       -3.31527        0.12577
