68

C         15.90684       22.42134       33.38783
C         14.44024       21.98765       33.45519
C         13.57802       23.01447       34.19348
N         13.89864       21.64439       32.12488
C         13.53136       20.31728       31.90809
O         13.61825       19.42969       32.75373
C         13.00878       19.96448       30.56866
C         12.63645       18.64786       30.32509
C         12.15072       18.28417       29.07328
C         12.01466       19.21037       28.01220
C         11.52378       18.83934       26.71944
C         11.13801       17.51649       26.39673
C         10.66570       17.16144       25.13748
C         10.55800       18.12373       24.14088
C         10.05002       17.71330       22.81459
O          9.75490       16.52952       22.64550
N          9.92970       18.68813       21.81776
C          9.43880       18.33413       20.58674
C          9.00141       18.08153       19.49881
C          8.44529       17.90668       18.08766
C          8.03159       17.97647       16.96443
C          7.59187       18.30082       15.65026
C          8.30504       18.05215       14.48545
C          7.71840       18.73424       13.39337
C          8.08311       19.00810       11.96666
C          7.05300       20.06591       11.64206
C          6.89387       20.99363       10.69445
C          5.75314       21.86047       11.05544
S          5.01251       21.41123       12.58201
C          6.13122       20.14643       12.76287
C          6.58242       19.40827       13.77228
S          6.15725       19.22525       15.37031
C         10.30383       20.02043       22.04926
O         10.23735       20.90352       21.19309
C         10.80657       20.38952       23.39090
C         11.16508       21.71149       23.63378
C         11.64072       22.08517       24.88854
C         11.78109       21.16344       25.95387
C         12.27458       21.53487       27.24821
C         12.66520       22.85622       27.57373
C         13.15198       23.20462       28.83155
C         13.26768       22.23823       29.82476
C         13.80013       22.63558       31.15006
O         14.12886       23.80726       31.31689
C         12.89227       20.92267       29.56481
C         12.39116       20.55540       28.27057
C         11.41031       19.81669       25.69599
C         10.92112       19.44085       24.40009
H         16.31999       22.53326       34.39601
H         16.03598       23.37689       32.87151
H         16.50633       21.67242       32.85887
H         14.42515       21.08614       34.07900
H         13.60973       24.00229       33.72538
H         13.92355       23.13060       35.22646
H         12.53206       22.69054       34.22219
H         12.72227       17.89192       31.10422
H         11.88135       17.23803       28.95669
H         11.19489       16.71115       27.12394
H         10.38359       16.12685       24.94631
H          9.23802       17.50265       14.45550
H          7.94794       18.11484       11.34989
H          9.10318       19.39184       11.87848
H          7.51406       21.15951        9.82947
H          5.46048       22.69955       10.41262
H         11.07846       22.46476       22.85133
H         11.90122       23.13407       25.00482
H         12.60421       23.66331       26.84835
H         13.44111       24.23677       29.02475
