84

C         25.31156       33.90288      -18.31004
C         24.38650       32.74923      -18.71142
C         25.18824       31.51030      -19.11746
N         23.36574       32.41670      -17.69815
C         22.09668       32.08486      -18.17350
O         21.78830       32.07880      -19.36415
C         21.07330       31.69381      -17.17687
C         19.78478       31.40854      -17.61343
C         18.80605       31.03632      -16.69534
C         19.06421       30.93628      -15.30704
C         18.06966       30.53189      -14.35705
C         16.74567       30.19218      -14.72431
C         15.79307       29.78119      -13.79488
C         16.12788       29.68525      -12.44792
C         15.08699       29.25864      -11.48064
O         13.94074       29.15337      -11.91570
N         15.48053       29.06610      -10.14892
C         14.52036       28.54349       -9.19701
C         14.58197       28.89615       -7.84306
C         13.69411       28.35779       -6.90915
C         12.68986       27.45656       -7.28828
C         11.77070       26.92418       -6.27286
C         11.13763       27.80712       -5.38709
C         10.38221       27.33010       -4.32212
C         10.22382       25.95354       -4.11661
C          9.57810       25.52036       -2.88047
C         10.17455       24.93611       -1.76616
C          9.34557       25.09372       -0.63037
C          9.51875       24.96804        0.85191
C          8.31131       25.75577        1.30814
C          7.97054       26.42023        2.41609
C          6.75942       27.22133        2.14612
S          6.19166       27.06165        0.49386
C          7.47230       25.99655        0.14351
C          8.14324       25.67186       -0.95948
S          7.92857       25.96848       -2.58308
C         10.80197       25.06034       -5.02031
C         11.56337       25.54501       -6.09559
C         12.60720       27.11095       -8.63916
C         13.50612       27.64773       -9.57685
C         16.77998       29.35439       -9.70319
O         17.22772       29.13309       -8.57806
C         17.73913       29.90524      -10.68498
C         19.00882       30.26532      -10.24348
C         19.96658       30.69878      -11.15308
C         19.70813       30.78325      -12.54004
C         20.70654       31.17155      -13.48939
C         22.03903       31.47745      -13.12083
C         23.01444       31.81333      -14.05459
C         22.68836       31.87405      -15.40402
C         23.75583       32.19422      -16.37980
O         24.91542       32.21815      -15.98184
C         21.38659       31.61238      -15.82291
C         20.38061       31.24273      -14.86932
C         18.39914       30.44805      -12.97904
C         17.41329       30.01191      -12.03067
H         25.87344       34.25628      -19.18174
H         26.04927       33.60962      -17.55767
H         24.73632       34.74633      -17.91428
H         23.86123       33.09681      -19.60997
H         25.76056       31.10360      -18.27758
H         25.89133       31.74948      -19.92203
H         24.52206       30.71825      -19.47680
H         19.53067       31.46804      -18.67070
H         17.82435       30.82144      -17.10896
H         16.41236       30.23518      -15.75784
H         14.78834       29.53631      -14.13724
H         15.30852       29.61394       -7.47154
H         13.80406       28.65081       -5.86613
H         11.26067       28.88266       -5.49709
H          9.95636       28.04489       -3.62063
H         11.20502       24.60226       -1.74645
H         10.45412       25.42295        1.18984
H          9.45836       23.92261        1.16764
H          8.51584       26.46775        3.34405
H          6.32436       27.86065        2.92393
H         10.69529       23.98747       -4.88037
H         12.04002       24.83174       -6.76523
H         11.83615       26.42484       -8.98364
H         13.40371       27.31466      -10.60669
H         19.27391       30.19394       -9.18928
H         20.93608       30.95366      -10.73406
H         22.36709       31.44473      -12.08540
H         24.02918       32.01931      -13.71754
