72

C         16.09708        2.22681       39.28218
C         14.57840        2.07025       39.17391
C         13.85373        2.78344       40.31881
N         14.08593        2.46177       37.83848
C         13.75993        1.43288       36.95618
O         13.84647        0.23683       37.22893
C         13.29746        1.81475       35.60295
C         12.91614        0.81166       34.71977
C         12.48791        1.14150       33.43765
C         12.42120        2.47866       32.97925
C         11.99648        2.82404       31.65600
C         11.61753        1.85722       30.69516
C         11.21340        2.20028       29.40865
C         11.16669        3.53639       29.02543
C         10.73254        3.86323       27.64480
O         10.49816        2.91301       26.89973
N         10.64516        5.21836       27.30215
C         10.19261        5.63897       26.04614
C          9.70578        4.91733       25.02356
C          9.28785        5.58605       23.81275
C          8.75739        5.00142       22.72674
C          8.44599        5.85701       21.63541
C          9.19803        6.10131       20.48811
C          8.75287        7.27695       19.84022
C          9.27450        8.17557       18.76222
C          8.38882        9.37910       18.99171
C          8.44630       10.67987       18.69320
C          7.37058       11.38887       19.41584
S          6.40770       10.32127       20.42214
C          7.35377        8.99379       19.93798
C          7.64236        7.80188       20.45379
S          7.06028        6.91149       21.73144
C         11.03992        6.24290       28.18093
O         11.04630        7.44230       27.89825
C         11.47752        5.86200       29.53934
C         11.83608        6.86839       30.43045
C         12.24802        6.54301       31.71846
C         12.32149        5.20647       32.17510
C         12.75449        4.86126       33.49619
C         13.15243        5.82680       34.45216
C         13.58782        5.48046       35.72825
C         13.63717        4.14329       36.10523
C         14.12430        3.80348       37.46296
O         14.54979        4.71089       38.17065
C         13.24595        3.14999       35.21120
C         12.80338        3.49821       33.89150
C         11.94850        4.18595       31.25926
C         11.52595        4.53000       29.93137
H         16.45909        1.82907       40.23601
H         16.40876        3.27376       39.21746
H         16.59973        1.68111       38.47605
H         14.36817        1.00343       39.31692
H         14.11151        3.84385       40.38640
H         14.11898        2.32597       41.27828
H         12.76800        2.70652       40.19725
H         12.95098       -0.23505       35.01807
H         12.20768        0.30563       32.80249
H         11.62920        0.79404       30.91901
H         10.93680        1.41064       28.71122
H         10.23841        6.72070       25.90931
H          9.59664        3.83923       25.05506
H          9.42706        6.66925       23.80057
H          8.60306        3.93144       22.64301
H         10.10161        5.55659       20.24234
H          9.10835        7.73819       17.77360
H         10.33161        8.41261       18.91079
H          9.18940       11.18190       18.09636
H          7.25284       12.47528       19.32170
H         11.79827        7.91578       30.13324
H         12.51209        7.38132       32.35748
H         13.14244        6.89004       34.22755
H         13.89017        6.26495       36.42042
