68

C          5.80763      -33.57988      -12.41647
C          4.64236      -32.97716      -13.20490
C          3.29862      -33.57334      -12.77801
N          4.65164      -31.50150      -13.16180
C          4.43359      -30.85207      -11.94798
O          4.22710      -31.42535      -10.88171
C          4.46615      -29.37044      -11.95194
C          4.21931      -28.69135      -10.76362
C          4.25041      -27.29913      -10.73667
C          4.53012      -26.52309      -11.88624
C          4.56708      -25.08929      -11.86755
C          4.32199      -24.32306      -10.70173
C          4.35921      -22.92946      -10.69709
C          4.64871      -22.23520      -11.86718
C          4.68342      -20.74814      -11.83083
O          4.45563      -20.20774      -10.74969
N          4.99155      -20.08615      -13.02566
C          5.08620      -18.69356      -13.10815
C          4.87215      -17.74224      -12.18325
C          5.18645      -16.40070      -12.55433
C          6.18162      -15.57785      -12.02787
C          6.45674      -14.50274      -12.90605
C          7.55107      -13.49243      -13.06050
C          7.28085      -13.05092      -14.48120
C          7.99785      -12.48911      -15.45855
C          7.22986      -12.55206      -16.71874
S          5.67409      -13.34110      -16.52907
C          5.99169      -13.59705      -14.87688
C          5.59077      -14.48614      -13.97113
S          4.40147      -15.64603      -13.92259
C          5.27748      -20.77446      -14.21749
O          5.59366      -20.23566      -15.27963
C          5.20690      -22.24579      -14.20407
C          5.46309      -22.92807      -15.38861
C          5.41680      -24.31532      -15.41388
C          5.11920      -25.08131      -14.26467
C          5.07385      -26.51062      -14.28595
C          5.31168      -27.26794      -15.45836
C          5.27113      -28.65787      -15.47102
C          4.98922      -29.35202      -14.30095
C          4.95907      -30.83113      -14.34445
O          5.21071      -31.39017      -15.40991
C          4.74394      -28.66052      -13.11671
C          4.78176      -27.22619      -13.09574
C          4.86237      -24.37553      -13.05729
C          4.90424      -22.94090      -13.04072
H          5.85379      -34.66360      -12.56710
H          5.71936      -33.39899      -11.34124
H          6.75980      -33.15189      -12.74875
H          4.78661      -33.29429      -14.24455
H          3.09589      -33.43346      -11.71266
H          3.28050      -34.65085      -12.97432
H          2.47743      -33.11449      -13.33919
H          4.00131      -29.23767       -9.84711
H          4.04853      -26.83787       -9.77362
H          4.09058      -24.79475       -9.75022
H          4.16088      -22.39590       -9.76836
H          5.41330      -18.35094      -14.09214
H          4.58632      -17.94474      -11.15857
H          6.78300      -15.84864      -11.16842
H          8.53975      -13.94726      -12.95494
H          7.42424      -12.66699      -12.35414
H          9.00970      -12.12399      -15.40033
H          7.65245      -12.16350      -17.65342
H          5.70255      -22.38792      -16.30384
H          5.62855      -24.77679      -16.37422
H          5.53805      -26.79413      -16.40964
H          5.46278      -29.18914      -16.40209
