31

C          0.91773       -0.55539       -0.20153
C         -0.23761       -0.88404       -0.15964
C         -1.65416       -0.80264       -0.07407
N         -2.46211       -1.82951       -0.19055
C         -3.77817       -1.38928       -0.09028
C         -4.93520       -2.19059       -0.17175
C         -6.20123       -1.60058       -0.06144
C         -6.33045       -0.22829        0.12936
C         -5.20237        0.58775        0.21732
C         -3.94020       -0.01545        0.10513
S         -2.39886        0.72724        0.17292
C          2.07091        0.27744       -0.20284
C          1.94560        1.65940       -0.27660
C          3.20038        2.27890       -0.18073
C          3.71163        3.70120       -0.14845
C          5.18879        3.41688        0.01254
C          6.36388        4.18473        0.14254
C          7.46786        3.35515        0.27045
S          7.05339        1.67021        0.23412
C          5.44622        2.05696        0.05306
C          4.22064        1.35399       -0.06284
S          3.70953       -0.23421       -0.06187
H         -4.83578       -3.26088       -0.32222
H         -7.09117       -2.22203       -0.12692
H         -7.31916        0.21813        0.21153
H         -5.29743        1.65928        0.36623
H          0.99596        2.17323       -0.36337
H          3.49861        4.22308       -1.08497
H          3.31006        4.24718        0.70963
H          6.41674        5.26626        0.14692
H          8.50280        3.64534        0.38688
