64

C          5.59511      -30.45388        3.92687
C          4.21940      -29.99451        4.41666
C          3.64298      -30.97897        5.44124
N          4.26090      -28.59396        4.88185
C          3.99492      -27.60569        3.93090
O          3.69363      -27.84070        2.76270
C          4.11264      -26.19093        4.36096
C          3.83666      -25.17814        3.44786
C          3.94981      -23.84144        3.83117
C          4.32386      -23.45513        5.14096
C          4.48011      -22.08411        5.54224
C          4.34832      -20.98851        4.65133
C          4.54821      -19.66455        5.04981
C          4.86676      -19.37592        6.37295
C          5.11413      -17.96135        6.77562
O          5.16045      -17.11003        5.88836
N          5.27219      -17.72833        8.14191
C          5.61602      -16.43770        8.56483
C          6.46695      -15.49461        7.99713
C          6.79395      -14.50410        8.95906
C          7.83845      -13.43896        9.10615
C          7.67684      -13.12977       10.57930
C          8.43014      -12.57216       11.53183
C          7.78431      -12.78066       12.84454
S          6.28778      -13.68861       12.72975
C          6.47953      -13.81039       11.04465
C          6.04990      -14.64737       10.10491
S          4.94316      -15.88534       10.06748
C          5.52359      -18.74634        9.06894
O          6.03949      -18.61614       10.17859
C          5.26993      -20.12743        8.62590
C          5.39487      -21.14511        9.56405
C          5.25701      -22.46634        9.16999
C          4.98390      -22.82802        7.83297
C          4.90904      -24.19051        7.41560
C          5.18683      -25.27167        8.28656
C          5.14957      -26.59526        7.86709
C          4.80173      -26.89139        6.55599
C          4.81265      -28.30567        6.12545
O          5.32924      -29.13298        6.87139
C          4.48645      -25.87059        5.66227
C          4.56771      -24.49961        6.07423
C          4.80259      -21.77939        6.88970
C          4.97028      -20.41491        7.29860
H          5.54504      -31.47136        3.52564
H          6.33656      -30.44355        4.73241
H          5.96337      -29.79592        3.13221
H          3.54085      -30.03623        3.55548
H          4.34473      -31.20495        6.24965
H          3.40660      -31.93269        4.95662
H          2.72240      -30.58837        5.88704
H          3.53911      -25.41862        2.42817
H          3.72705      -23.10311        3.06498
H          4.10986      -21.14132        3.60133
H          4.45726      -18.86641        4.31394
H          6.96456      -15.62351        7.04377
H          7.60371      -12.56911        8.48647
H          8.83780      -13.82132        8.87992
H          9.39648      -12.11034       11.41665
H          8.25203      -12.41278       13.76599
H          5.62534      -20.92089       10.60479
H          5.37932      -23.20671        9.95514
H          5.47562      -25.11422        9.32209
H          5.40052      -27.38729        8.57078
