27

C         -1.44839       -1.34798        0.33844
C         -1.52807        0.03823        0.45084
C         -0.38050        0.82077        0.29601
C          0.86156        0.22596        0.02963
C          2.07660        1.03190       -0.15131
C          3.05123        0.91803       -1.14208
C          4.07794        1.86880       -0.95838
C          5.36564        2.25642       -1.66135
C          5.81191        3.38321       -0.74738
C          6.89980        4.27977       -0.67589
C          6.76498        5.11762        0.42233
S          5.32748        4.79982        1.33877
C          4.91470        3.58040        0.28609
C          3.85301        2.65278        0.15564
S          2.46089        2.29229        0.98610
C          0.92433       -1.17079       -0.08645
C         -0.22296       -1.95322        0.06954
H         -2.34104       -1.95594        0.46068
H         -2.48343        0.51359        0.65773
H         -0.46982        1.90184        0.37634
H          3.00432        0.19445       -1.94644
H          5.17430        2.61685       -2.67558
H          6.08476        1.43300       -1.66078
H          7.73167        4.32564       -1.36722
H          7.43331        5.90502        0.74263
H          1.87303       -1.66367       -0.28621
H         -0.15784       -3.03476       -0.01612
