97

C          0.90290       -0.53037        0.00513
C          2.36007       -0.07486        0.11564
C          3.26305       -1.22321        0.57958
N          2.81000        0.58742       -1.12636
C          3.11927       -0.18282       -2.24412
O          3.00893       -1.40391       -2.30205
C          3.58475        0.53572       -3.45421
C          4.07719       -0.20282       -4.52354
C          4.50065        0.44706       -5.68039
C          4.43581        1.85380       -5.83249
C          4.86428        2.53060       -7.02247
C          5.43507        1.85430       -8.12549
C          5.85942        2.51968       -9.27299
C          5.71257        3.89969       -9.37757
C          6.21350        4.57913      -10.59615
O          6.91406        3.90245      -11.34876
N          5.90291        5.93672      -10.76446
C          6.19172        6.56982      -12.04631
C          6.42816        7.94931      -12.17146
C          6.55361        8.57014      -13.42875
C          6.45086        7.82584      -14.60661
C          6.23742        8.48037      -15.90330
C          5.09355        8.34920      -16.68206
C          5.07399        9.30202      -17.71933
C          6.24496       10.01524      -17.78838
S          7.34512        9.62640      -16.58716
C          6.11078       11.08830      -18.73825
C          7.00632       12.00966      -19.25522
C          6.45565       13.00514      -20.06272
C          5.03467       13.12519      -20.19882
C          4.15305       12.15477      -19.77651
C          4.72188       11.08342      -19.10286
C          4.01176        9.77997      -18.68006
C          3.90131        8.84924      -19.89532
C          2.65810        9.99871      -18.01364
C          4.80913       14.39734      -20.81123
S          3.46410       15.35556      -21.02321
C          4.46164       16.63435      -21.62832
C          5.80466       16.28882      -21.66622
C          5.99897       14.97627      -21.17043
C          7.18996       14.06190      -20.93238
C          8.36764       14.74171      -20.25121
C          7.61577       13.40273      -22.25734
C          6.29880        6.44202      -14.49665
C          6.17262        5.82799      -13.24088
C          5.29060        6.68504       -9.74409
O          4.93963        7.86205       -9.81845
C          4.96164        5.98527       -8.47320
C          4.40821        6.71456       -7.42350
C          4.03589        6.07567       -6.24066
C          4.17759        4.68046       -6.05179
C          3.79481        4.01053       -4.84027
C          3.28703        4.69261       -3.70740
C          2.91871        4.03250       -2.53622
C          3.03149        2.64933       -2.45302
C          2.64216        1.97159       -1.19338
O          2.17587        2.65158       -0.28097
C          3.51248        1.92348       -3.53893
C          3.91721        2.59887       -4.74081
C          4.72499        3.93973       -7.13208
C          5.13592        4.61383       -8.33597
H          0.55594       -0.95556        0.95282
H          0.77316       -1.28853       -0.77376
H          0.25037        0.31370       -0.24338
H          2.40077        0.66983        0.92074
H          3.14331       -2.12523       -0.02742
H          3.01713       -1.50314        1.61023
H          4.31731       -0.92924        0.55243
H          4.13635       -1.28882       -4.46766
H          4.87414       -0.19457       -6.47402
H          5.58462        0.77792       -8.11865
H          6.30984        1.94582      -10.08191
H          6.49938        8.59205      -11.29739
H          6.65473        9.65310      -13.46838
H          4.26764        7.69950      -16.41958
H          8.06825       11.94713      -19.05444
H          3.09085       12.22386      -19.97105
H          4.87346        8.69783      -20.38362
H          3.22309        9.26150      -20.65091
H          3.53010        7.86028      -19.60517
H          2.73326       10.67095      -17.15144
H          2.24286        9.04912      -17.65554
H          1.93365       10.43130      -18.71204
H          4.00812       17.57277      -21.91641
H          6.58417       16.95570      -22.01202
H          8.08271       15.19636      -19.29696
H          8.77927       15.53490      -20.88716
H          9.17595       14.02813      -20.05483
H          6.77074       12.91018      -22.75820
H          8.38340       12.63820      -22.09640
H          8.01115       14.14524      -22.95984
H          6.20836        5.82849      -15.39096
H          5.97890        4.75836      -13.24311
H          4.25036        7.78862       -7.51582
H          3.60882        6.71221       -5.46978
H          3.17130        5.77333       -3.69990
H          2.54323        4.60982       -1.69243
