109

C          0.94002        0.21861        0.32277
C          2.46500        0.13296        0.22156
C          3.07523       -0.53749        1.45605
N          2.88981       -0.48800       -1.04845
C          2.65043       -1.84424       -1.25589
O          2.09478       -2.58398       -0.44803
C          3.07732       -2.41970       -2.55139
C          2.92574       -3.78604       -2.75547
C          3.29832       -4.35105       -3.97061
C          3.83157       -3.58362       -5.03346
C          4.19488       -4.15432       -6.29429
C          4.04311       -5.53031       -6.58186
C          4.36559       -6.07165       -7.82098
C          4.87130       -5.25552       -8.82765
C          5.11516       -5.84742      -10.16175
O          4.73591       -7.00804      -10.31592
N          5.68077       -5.02243      -11.14543
C          5.87721       -5.55853      -12.47626
C          5.74837       -4.73908      -13.61173
C          5.80778       -5.27117      -14.90322
C          5.99982       -6.63653      -15.08307
C          5.91789       -7.19978      -16.38868
C          5.74820       -7.68777      -17.47053
C          5.47021       -8.28608      -18.73377
C          4.75943       -9.48827      -18.78086
C          4.47957      -10.08138      -20.00709
C          4.92620       -9.47652      -21.18043
C          5.66742       -8.28139      -21.14192
C          6.25796       -7.73673      -22.36463
C          6.22603       -6.45326      -22.91169
C          6.95234       -6.39731      -24.13530
C          7.49143       -7.62017      -24.42093
S          7.22669       -8.81705      -23.31182
C          8.17201       -7.61188      -25.66551
C          8.74655       -8.66434      -26.34646
C          9.25260       -8.36064      -27.59499
C          9.22555       -7.01744      -28.09015
C          8.64547       -5.96200      -27.39645
C          8.07985       -6.27751      -26.16385
C          7.25096       -5.35798      -25.21571
C          5.97514       -4.87722      -25.91237
C          8.07663       -4.18543      -24.68983
C          9.85377       -7.08625      -29.37471
S         10.25791       -5.96130      -30.53345
C         10.94078       -7.20858      -31.52197
C         10.83937       -8.46318      -30.94191
C         10.20241       -8.37960      -29.68104
C          9.81493       -9.37869      -28.61055
C         11.00412      -10.15415      -28.04895
C          8.69757      -10.31837      -29.07747
C          5.91566       -7.67580      -19.90788
C          6.18844       -7.46140      -13.97991
C          6.13384       -6.92346      -12.69092
C          6.02185       -3.68606      -10.89559
O          6.67579       -2.95877      -11.64265
C          5.61128       -3.10661       -9.59593
C          5.79453       -1.74438       -9.38208
C          5.43775       -1.17630       -8.16227
C          4.89674       -1.93787       -7.09913
C          4.52363       -1.36394       -5.84033
C          4.65218        0.01691       -5.55703
C          4.27736        0.56721       -4.33427
C          3.75620       -0.24865       -3.33649
C          3.35960        0.36426       -2.04775
O          3.45019        1.58399       -1.92733
C          3.60923       -1.61562       -3.55641
C          3.99200       -2.18990       -4.81396
C          4.72304       -3.32920       -7.32246
C          5.07292       -3.90127       -8.59083
H          0.64283        0.77340        1.21875
H          0.47436       -0.77043        0.37335
H          0.52402        0.73579       -0.54883
H          2.83428        1.16540        0.23804
H          2.65898       -1.53040        1.64713
H          2.88474        0.06769        2.34912
H          4.15966       -0.64182        1.34392
H          2.51292       -4.42324       -1.97485
H          3.14872       -5.42366       -4.05880
H          3.64736       -6.22870       -5.84972
H          4.20017       -7.13427       -7.99439
H          5.53615       -3.67651      -13.52620
H          5.66254       -4.61629      -15.75906
H          4.42671       -9.96865      -17.86374
H          3.93377      -11.01980      -20.05115
H          4.71664       -9.96230      -22.13169
H          5.68677       -5.62570      -22.46726
H          8.75280       -9.67009      -25.94608
H          8.60341       -4.96289      -27.81211
H          5.39000       -5.71493      -26.31123
H          6.20594       -4.21131      -26.75196
H          5.32853       -4.32870      -25.21795
H          8.99260       -4.52191      -24.19060
H          7.50393       -3.59786      -23.96247
H          8.37299       -3.51120      -25.50178
H         11.37961       -6.95426      -32.47659
H         11.20409       -9.37216      -31.40361
H         11.79784       -9.48524      -27.69663
H         11.43910      -10.81107      -28.81059
H         10.70581      -10.78301      -27.20163
H          7.83380       -9.76196      -29.46338
H          8.33485      -10.94707      -28.25548
H          9.04468      -10.98011      -29.87818
H          6.49248       -6.75542      -19.85492
H          6.34729       -8.52972      -14.10675
H          6.29176       -7.60853      -11.86176
H          6.21612       -1.11031      -10.16108
H          5.60489       -0.10644       -8.07031
H          5.04759        0.71486       -6.29019
H          4.39477        1.63764       -4.17202
