89

C          0.96010        0.10905        0.24589
C          2.48279       -0.02285        0.15015
C          3.08642       -0.51525        1.46897
N          2.88986       -0.83399       -1.01656
C          2.60455       -2.19745       -1.03159
O          2.03100       -2.79637       -0.12543
C          3.00221       -2.96457       -2.23592
C          2.78329       -4.33716       -2.25549
C          3.11387       -5.07888       -3.38678
C          3.66669       -4.48997       -4.54946
C          3.96241       -5.23965       -5.73609
C          3.74856       -6.63510       -5.83793
C          3.97638       -7.34452       -7.01511
C          4.43084       -6.68262       -8.15058
C          4.58621       -7.44822       -9.40928
O          4.40196       -8.66519       -9.37222
N          4.92620       -6.75099      -10.57772
C          4.94281       -7.41560      -11.78215
C          4.98960       -8.01178      -12.82970
C          5.19835       -8.75082      -14.03459
C          6.35092       -8.63543      -14.79752
C          6.41203       -9.66029      -15.76700
C          5.26806      -10.42375      -15.78928
S          4.13375       -9.97626      -14.64574
C          5.48679      -11.60002      -16.59001
C          4.66584      -12.51657      -17.20916
C          5.33530      -13.54387      -17.86833
C          6.72963      -13.77701      -17.64021
C          7.55904      -12.78492      -17.18035
C          6.90548      -11.62442      -16.79596
C          7.47856      -10.19464      -16.69338
C          7.34246       -9.55310      -18.09444
C          8.90158      -10.08322      -16.18214
C          6.97292      -15.09729      -18.13743
S          8.15070      -16.24168      -17.86889
C          7.21407      -17.41715      -18.73300
C          6.02750      -16.89495      -19.22764
C          5.88691      -15.53863      -18.85283
C          4.84739      -14.44793      -19.02936
C          3.40114      -14.89576      -18.98095
C          5.13476      -13.68048      -20.34630
C          5.35080       -5.41497      -10.51225
O          5.84792       -4.81239      -11.46452
C          5.18750       -4.68372       -9.23191
C          5.49938       -3.32872       -9.18329
C          5.28332       -2.60239       -8.01223
C          4.74658       -3.18776       -6.83973
C          4.45801       -2.43767       -5.64935
C          4.67737       -1.04257       -5.54444
C          4.35047       -0.31535       -4.40120
C          3.78864       -0.95877       -3.30394
C          3.42435       -0.15535       -2.11215
O          3.59604        1.06102       -2.15209
C          3.56698       -2.33270       -3.34088
C          3.90324       -3.08988       -4.51557
C          4.47537       -4.58075       -6.88440
C          4.70095       -5.32071       -8.09681
H          0.68230        0.79948        1.04951
H          0.47440       -0.85003        0.45002
H          0.54639        0.49779       -0.69096
H          2.86957        0.99410        0.01359
H          2.66052       -1.46672        1.79915
H          2.90168        0.21330        2.26626
H          4.16972       -0.64460        1.37480
H          2.34423       -4.84184       -1.39599
H          2.90411       -6.14375       -3.33202
H          3.37956       -7.21711       -4.99742
H          3.77549       -8.41499       -7.03818
H          7.14746       -7.93514      -14.57789
H          3.59299      -12.38715      -17.25582
H          8.63586      -12.87530      -17.21597
H          6.31483       -9.61562      -18.48225
H          7.98193      -10.05896      -18.82701
H          7.60516       -8.49077      -18.07559
H          9.02154      -10.54050      -15.19560
H          9.19933       -9.03079      -16.10342
H          9.60444      -10.56970      -16.86816
H          7.58196      -18.43004      -18.82396
H          5.30879      -17.47209      -19.79541
H          3.16285      -15.42899      -18.05685
H          3.17791      -15.56337      -19.82240
H          2.72422      -14.03700      -19.06166
H          6.18602      -13.36394      -20.42053
H          4.52955      -12.77016      -20.41968
H          4.93700      -14.30467      -21.22403
H          5.89575       -2.81794      -10.06012
H          5.53628       -1.54591       -8.05399
H          5.10241       -0.47063       -6.36514
H          4.53048        0.75872       -4.38184
