107

C          0.88904       -0.64158       -0.49213
C          2.29852       -0.30481        0.00271
C          3.22538       -1.51807       -0.11541
N          2.79851        0.92747       -0.63956
C          3.34658        0.87695       -1.91896
O          3.44541       -0.14062       -2.59812
C          3.80446        2.15637       -2.51258
C          4.52672        2.12928       -3.70066
C          4.90554        3.32278       -4.31276
C          4.56184        4.59091       -3.78420
C          4.89222        5.82607       -4.43507
C          5.61428        5.88951       -5.65104
C          5.87896        7.09295       -6.30191
C          5.43548        8.29385       -5.75582
C          5.68208        9.55454       -6.49799
O          6.31438        9.47312       -7.55061
N          5.20899       10.74199       -5.92242
C          5.32607       11.96845       -6.66614
C          5.64738       13.17841       -6.03843
C          5.69938       14.37924       -6.75776
C          5.40998       14.42194       -8.12804
C          5.49042       15.68174       -8.89886
C          5.90754       15.66585      -10.23407
C          6.03965       16.84398      -10.96680
C          5.80371       18.10218      -10.39098
C          6.04402       19.33740      -11.16158
C          5.49789       20.62091      -11.04680
C          5.94117       21.47722      -12.09780
C          6.79336       20.80504      -12.92561
S          7.20798       19.27967      -12.45645
C          7.10486       21.56146      -14.08533
C          7.77850       21.16638      -15.22403
C          7.77326       22.07348      -16.26646
C          7.15252       23.35499      -16.11627
C          6.48299       23.74810      -14.96343
C          6.43479       22.81227      -13.93415
C          5.64695       22.89330      -12.59042
C          4.15490       23.12373      -12.83180
C          6.23924       23.95862      -11.66737
C          7.34545       24.00922      -17.37454
S          6.95861       25.51379      -17.97288
C          7.67854       25.10575      -19.49385
C          8.19740       23.82062      -19.50970
C          7.99901       23.18682      -18.25981
C          8.32482       21.82179      -17.68804
C          9.82136       21.51875      -17.67362
C          7.53119       20.70586      -18.37677
C          5.34918       18.13060       -9.07039
C          5.18905       16.93816       -8.34077
C          5.08484       13.20266       -8.74824
C          5.06293       11.99647       -8.03873
C          4.59332       10.79051       -4.66668
O          4.18463       11.80416       -4.10120
C          4.34767        9.50221       -3.98446
C          3.65699        9.51911       -2.77812
C          3.37121        8.32749       -2.12504
C          3.76103        7.07018       -2.63927
C          3.44988        5.84100       -1.97911
C          2.74476        5.78906       -0.75300
C          2.42425        4.59039       -0.12639
C          2.79010        3.38550       -0.71253
C          2.42783        2.12597       -0.02757
O          1.79724        2.19275        1.02605
C          3.48143        3.37374       -1.92090
C          3.83789        4.60624       -2.56182
C          4.47434        7.05912       -3.86759
C          4.75788        8.29468       -4.54046
H          0.49258       -1.51953        0.02812
H          0.87928       -0.84617       -1.56760
H          0.20235        0.19273       -0.31003
H          2.22139       -0.10223        1.07890
H          3.18771       -1.97849       -1.10710
H          2.92300       -2.29161        0.59951
H          4.26302       -1.24505        0.10123
H          4.79141        1.18134       -4.16692
H          5.46306        3.22573       -5.24077
H          5.98672        4.99230       -6.13887
H          6.42619        7.07851       -7.24389
H          5.89051       13.21198       -4.97896
H          5.98923       15.28105       -6.22323
H          6.16901       14.73414      -10.73030
H          6.35410       16.74578      -12.00306
H          4.76940       20.89745      -10.29495
H          8.22201       20.18277      -15.31432
H          5.98751       24.70841      -14.89351
H          3.73182       22.37018      -13.50681
H          3.97049       24.10668      -13.28025
H          3.59203       23.07517      -11.89253
H          7.31047       23.79918      -11.49496
H          5.74624       23.94843      -10.68832
H          6.12188       24.96253      -12.09142
H          7.68009       25.83054      -20.29584
H          8.68319       23.37767      -20.37005
H         10.39159       22.30485      -17.16522
H         10.21428       21.43241      -18.69300
H         10.03168       20.57495      -17.15661
H          6.45293       20.90969      -18.36990
H          7.68120       19.74134      -17.87730
H          7.83540       20.59161      -19.42303
H          5.13368       19.07524       -8.57763
H          4.82988       17.01098       -7.31610
H          4.83075       13.16795       -9.80570
H          4.79132       11.09279       -8.57912
H          3.31960       10.45783       -2.34071
H          2.81561        8.42143       -1.19642
H          2.41725        6.69023       -0.24220
H          1.87999        4.60935        0.81646
