95

C          0.85742       -0.29995       -0.37549
C          2.37451       -0.13389       -0.25749
C          3.00106        0.30271       -1.58436
N          2.74279        0.74234        0.87285
C          3.29256        0.13035        1.99832
O          3.50022       -1.07728        2.09506
C          3.63200        0.99794        3.14887
C          4.21433        0.41917        4.26978
C          4.53293        1.20822        5.37018
C          4.28489        2.60202        5.40524
C          4.59691        3.41754        6.53926
C          5.18093        2.89290        7.71362
C          5.46873        3.68558        8.81771
C          5.18470        5.04793        8.79315
C          5.48219        5.84842        9.99887
O          5.81882        5.21258       10.99764
N          5.29664        7.23928        9.92635
C          5.63030        8.07038       11.01358
C          6.44566        7.74084       12.02553
C          6.68479        8.51292       13.22863
C          7.42480        7.95903       14.20141
C          7.56609        8.48675       15.51120
C          7.60713        9.78708       16.01600
C          7.79399        9.79579       17.42821
C          7.84480        8.52051       17.91819
S          7.73010        7.31393       16.79337
C          8.02728        8.50980       19.32973
C          8.13026        7.44300       20.20297
C          8.34315        7.76909       21.53253
C          8.44162        9.13831       21.93977
C          8.32311       10.20617       21.06077
C          8.11051        9.87980       19.72473
C          7.96137       10.85047       18.51694
C          9.23054       11.68128       18.32043
C          6.72389       11.73541       18.66216
C          8.69368        9.09539       23.34756
S          8.94803       10.25303       24.51686
C          9.14995        9.01677       25.71181
C          9.01571        7.74135       25.18558
C          8.74804        7.79903       23.79624
C          8.51852        6.77231       22.70340
C          7.24522        5.95617       22.93276
C          9.73414        5.86988       22.48570
C          4.64015        7.83935        8.84067
O          4.31312        9.02562        8.79554
C          4.33012        6.98525        7.66490
C          3.75420        7.56772        6.54117
C          3.46301        6.78848        5.42157
C          3.72559        5.39709        5.36926
C          3.41877        4.58121        4.22870
C          2.83443        5.09847        3.04824
C          2.52187        4.29539        1.95333
C          2.78538        2.93035        1.99253
C          2.42115        2.09749        0.82133
O          1.84532        2.63853       -0.11894
C          3.37107        2.36599        3.12221
C          3.69479        3.18699        4.25478
C          4.31354        4.81055        6.51927
C          4.61524        5.62302        7.66509
H          0.60937       -1.04162       -1.14212
H          0.35882        0.63590       -0.64493
H          0.43190       -0.64136        0.57457
H          2.77527       -1.13575       -0.06204
H          2.57220        1.23265       -1.96741
H          2.84357       -0.46548       -2.34945
H          4.08051        0.45007       -1.47205
H          4.42265       -0.64930        4.30043
H          4.98224        0.68607        6.21055
H          5.42725        1.83934        7.81166
H          5.91081        3.22336        9.69963
H          5.17122        9.05787       10.99919
H          6.96372        6.78520       12.00582
H          6.17386        9.46176       13.35913
H          7.86889        6.97814       14.03105
H          7.53521       10.67171       15.39561
H          8.05985        6.41737       19.86294
H          8.40479       11.23205       21.39769
H         10.12135       11.04738       18.23257
H          9.39579       12.36268       19.16284
H          9.16836       12.28562       17.40821
H          5.81438       11.14159       18.81269
H          6.57072       12.34690       17.76543
H          6.81766       12.41421       19.51759
H          9.35838        9.29282       26.73608
H          9.10994        6.83601       25.77197
H          6.36964        6.60030       23.07922
H          7.33842        5.32359       23.82295
H          7.03073        5.30229       22.07953
H         10.64456        6.45221       22.29886
H          9.58908        5.20569       21.62570
H          9.92109        5.24157       23.36388
H          3.52700        8.63284        6.52227
H          3.01353        7.31252        4.58198
H          2.59793        6.15427        2.94619
H          2.06675        4.74729        1.07314
