91

C          1.02623        0.01866        0.07083
C          2.55102       -0.07611       -0.03185
C          3.15541       -0.73183        1.21384
N          2.97434       -0.71507       -1.29591
C          2.73108       -2.07294       -1.48919
O          2.17535       -2.80178       -0.67149
C          3.15311       -2.66435       -2.78152
C          2.99482       -4.03188       -2.97364
C          3.35885       -4.61149       -4.18672
C          3.88805       -3.85936       -5.26344
C          4.23562       -4.44490       -6.52671
C          4.09432       -5.82657       -6.79870
C          4.39568       -6.38162       -8.04079
C          4.85352       -5.57172       -9.07467
C          5.10424       -6.18185      -10.40163
O          4.97323       -7.40150      -10.51167
N          5.46246       -5.34402      -11.46809
C          5.55044       -5.86807      -12.73909
C          5.57933       -6.33207      -13.85146
C          5.61121       -6.93029      -15.27063
C          5.72662       -7.40522      -16.37218
C          6.04894       -7.98157      -17.64231
C          7.25978       -7.75213      -18.27945
C          7.42471       -8.62922      -19.37289
C          6.30457       -9.39507      -19.60199
S          5.07079       -9.12742      -18.50391
C          6.62600      -10.45034      -20.52989
C          5.90366      -11.26289      -21.37490
C          6.66905      -12.18254      -22.08752
C          8.02066      -12.46143      -21.70816
C          8.77376      -11.53739      -21.03057
C          8.05804      -10.43708      -20.58561
C          8.57715       -9.01932      -20.26683
C          8.52395       -8.21205      -21.58776
C          9.95485       -8.93669      -19.64160
C          8.33395      -13.70652      -22.34234
S          9.44812      -14.90880      -22.05627
C          8.63801      -15.93803      -23.19281
C          7.54379      -15.32297      -23.78436
C          7.36185      -14.02268      -23.25993
C          6.36880      -12.88957      -23.43455
C          4.93231      -13.29155      -23.69272
C          6.87455      -11.94550      -24.55975
C          5.76834       -3.99246      -11.24427
O          6.22779       -3.24822      -12.11134
C          5.51252       -3.42143       -9.89813
C          5.72328       -2.06183       -9.68976
C          5.43266       -1.48873       -8.45123
C          4.91915       -2.23806       -7.36486
C          4.57779       -1.65175       -6.09807
C          4.72142       -0.26982       -5.82302
C          4.36221        0.29405       -4.59972
C          3.84067       -0.50729       -3.59011
C          3.45284        0.12193       -2.30454
O          3.55727        1.34167       -2.19510
C          3.68427       -1.87482       -3.79819
C          4.05472       -2.46421       -5.05644
C          4.73437       -3.62981       -7.57715
C          5.03734       -4.21160       -8.85840
H          0.73341        0.58479        0.96156
H          0.55567       -0.96733        0.13392
H          0.61092        0.52902       -0.80492
H          2.92444        0.95504       -0.02801
H          2.73581       -1.72104        1.41658
H          2.96222       -0.11468        2.09850
H          4.24002       -0.83926        1.10834
H          2.58125       -4.65909       -2.18508
H          3.20006       -5.68372       -4.26470
H          3.73078       -6.52038       -6.04513
H          4.25290       -7.45081       -8.19333
H          8.02054       -7.08259      -17.89757
H          4.84445      -11.12191      -21.54199
H          9.84903      -11.61846      -20.95370
H          7.52827       -8.24125      -22.05515
H          9.22503       -8.61403      -22.32826
H          8.75785       -7.15591      -21.42104
H         10.02141       -9.51098      -18.71320
H         10.20992       -7.89501      -19.41305
H         10.71982       -9.31517      -20.32953
H          9.00368      -16.94239      -23.35779
H          6.91086      -15.80295      -24.51992
H          4.53724      -13.94591      -22.91160
H          4.84862      -13.82013      -24.65051
H          4.28671      -12.40740      -23.75485
H          7.92805      -11.65913      -24.42082
H          6.30064      -11.01276      -24.58865
H          6.81385      -12.42598      -25.54198
H          6.10144       -1.42898      -10.49193
H          5.61192       -0.41965       -8.36785
H          5.11529        0.41939       -6.56545
H          4.48913        1.36508       -4.44735
