40

C          1.15946        0.10775        1.39374
C          1.75062       -0.49675        0.11919
C          2.57116        0.52779       -0.66493
C          2.58110       -1.76833        0.43266
C          3.74356       -1.83749        1.19287
C          4.30693       -3.09438        1.32835
C          3.74952       -4.27524        0.74058
C          2.58837       -4.20571       -0.02160
C          2.02856       -2.94782       -0.16242
C          0.86728       -2.51426       -0.87483
S         -0.27174       -3.28579       -1.81268
C         -1.07826       -1.77965       -2.08832
C         -0.45346       -0.71798       -1.45172
C          0.68946       -1.16104       -0.74124
C          4.57891       -5.54712        1.05567
C          3.76912       -6.54635        1.88341
C          5.13076       -6.18498       -0.21964
C          5.66580       -4.87558        1.87749
C          6.83759       -5.31052        2.54466
C          7.48122       -4.24353        3.15301
S          6.65579       -2.74272        2.90572
C          5.48618       -3.52287        2.01378
H          1.94467        0.48959        2.05601
H          0.58080       -0.63010        1.96289
H          0.48571        0.93976        1.15867
H          3.00869        0.09055       -1.57064
H          3.39530        0.92509       -0.06164
H          1.94849        1.37367       -0.97830
H          4.18676       -0.96164        1.65013
H          2.14745       -5.08091       -0.48229
H         -1.96698       -1.75522       -2.70362
H         -0.80615        0.30425       -1.50447
H          2.92327       -6.94528        1.31216
H          3.36280       -6.08603        2.79236
H          4.39090       -7.39301        2.19648
H          4.32509       -6.57708       -0.85065
H          5.80501       -7.01632        0.01633
H          5.69793       -5.46465       -0.82161
H          7.19898       -6.33029        2.58435
H          8.39485       -4.26095        3.73092
