50

C          1.22004       -0.86849       -0.00689
C          2.72267       -0.58525       -0.04678
C          3.37196       -0.78256        1.32328
C          3.42371       -1.38146       -1.13387
C          3.64742       -2.75694       -1.38902
C          4.36965       -2.92822       -2.56026
S          4.75955       -1.42537       -3.32476
C          3.97901       -0.59502       -2.11087
C          3.75075        0.78996       -1.84023
C          4.11884        1.92435       -2.54344
C          3.73158        3.13895       -1.98822
C          3.00208        3.17739       -0.75674
C          2.63100        2.04329       -0.05530
C          3.01270        0.82865       -0.61368
C          2.78000        4.56191       -0.48110
S          2.03868        5.39027        0.75354
C          2.39573        6.91325       -0.00931
C          1.99518        8.18114        0.62799
C          0.80199        8.30362        1.35759
C          0.44187        9.51823        1.94972
C          1.26597       10.63220        1.81570
C          2.44980       10.53315        1.09012
C          2.81077        9.31742        0.50137
C          3.09434        6.72138       -1.20159
C          3.31722        5.34722       -1.46510
C          4.00077        4.55338       -2.56462
C          3.31846        4.74124       -3.92015
C          5.49939        4.84862       -2.63997
H          1.02273       -1.90511        0.28953
H          0.75138       -0.71417       -0.98657
H          0.70895       -0.21301        0.70734
H          3.25532       -1.81631        1.66853
H          2.92187       -0.12598        2.07652
H          4.44669       -0.56523        1.29870
H          3.31003       -3.57661       -0.76732
H          4.69202       -3.85606       -3.01207
H          4.67417        1.86476       -3.47113
H          2.07455        2.10289        0.87171
H          0.12884        7.45686        1.46909
H         -0.48453        9.59123        2.51363
H          0.98561       11.57590        2.27610
H          3.09650       11.40023        0.98369
H          3.74761        9.26557       -0.04834
H          3.41844        7.53187       -1.84241
H          3.75590        4.08534       -4.68138
H          3.41891        5.77470       -4.27127
H          2.24621        4.51585       -3.87006
H          5.99189        4.70078       -1.67113
H          5.68107        5.88606       -2.94358
H          5.99906        4.19569       -3.36453
