59

C          0.86745        0.47323        0.10981
C          2.33499        0.04945        0.00909
C          3.21115        1.20299       -0.48997
N          2.79881       -0.56517        1.26965
C          2.66379       -1.95066        1.37261
O          2.22625       -2.66689        0.47455
C          3.04858       -2.58246        2.65584
C          2.96542       -3.96483        2.77329
C          3.31669       -4.58280        3.97067
C          3.76949       -3.85643        5.09870
C          4.11927       -4.48312        6.33997
C          4.03462       -5.88001        6.54505
C          4.37731       -6.48037        7.75380
C          4.81529       -5.70335        8.82225
C          5.21523       -6.38035       10.07942
O          5.27485       -7.60912       10.03971
N          5.55021       -5.57347       11.17775
C          5.86280       -6.20881       12.44736
C          6.76619       -5.63300       13.35797
C          7.06410       -6.24339       14.58283
C          6.46706       -7.45010       14.92625
C          5.57130       -8.04387       14.04573
C          5.27253       -7.42871       12.82359
C          5.59651       -4.17365       11.08598
O          5.78666       -3.39271       12.01809
C          5.32377       -3.55917        9.76365
C          5.44715       -2.17933        9.62798
C          5.13544       -1.56310        8.41856
C          4.67644       -2.28710        7.29352
C          4.31703       -1.65758        6.05606
C          4.37877       -0.25670        5.85807
C          3.99187        0.34914        4.66513
C          3.53879       -0.42946        3.60653
C          3.08865        0.24366        2.36521
O          2.96882        1.46581        2.38093
C          3.48616       -1.81500        3.73163
C          3.86253       -2.44557        4.96546
C          4.56791       -3.69609        7.43349
C          4.90580       -4.32424        8.68205
H          0.50806        0.86083       -0.84914
H          0.72134        1.25089        0.86631
H          0.23600       -0.37841        0.38604
H          2.39155       -0.71727       -0.77397
H          3.06856        2.12088        0.08744
H          2.96053        1.44329       -1.52937
H          4.27191        0.93477       -0.45199
H          2.62298       -4.57384        1.93794
H          3.22094       -5.66510        3.99081
H          3.69890       -6.55253        5.76022
H          4.30215       -7.56312        7.84727
H          7.28797       -4.70727       13.12969
H          7.76842       -5.77112       15.26307
H          6.69877       -7.92540       15.87542
H          5.09612       -8.98659       14.30517
H          4.54041       -7.92261       12.18980
H          5.77513       -1.56517       10.46584
H          5.25339       -0.48309        8.39233
H          4.71931        0.41472        6.64183
H          4.04188        1.43332        4.57523
