60

C          0.85851       -0.17464        0.14587
C          2.28981       -0.60321        0.17140
C          3.12316       -0.47626       -0.87164
C          4.51500       -0.87329       -0.81764
C          5.37395       -0.60129       -1.81265
N          6.75200       -0.86229       -1.86949
C          7.44573       -0.27566       -2.94048
O          6.91121        0.32229       -3.87550
C          8.92302       -0.36176       -2.93507
C          9.63504        0.33353       -3.90663
C         11.02642        0.29720       -3.91061
C         11.76998       -0.43676       -2.95672
C         13.20283       -0.47758       -2.95315
C         13.99481        0.21598       -3.90035
C         15.38586        0.15468       -3.90212
C         16.04760       -0.59857       -2.93970
C         17.52675       -0.67654       -2.98718
O         18.09826       -0.22801       -3.97614
N         18.16678       -1.28603       -1.91125
C         19.64017       -1.38752       -1.89943
C         20.12386       -2.50359       -2.82855
C         20.36591       -0.07030       -2.19354
C         17.48228       -2.05411       -0.96814
O         18.03394       -2.76743       -0.13219
C         16.00173       -2.01885       -1.00072
C         15.29212       -2.73286       -0.04234
C         13.89963       -2.70550       -0.04480
C         13.15386       -1.96453       -0.99353
C         11.72033       -1.92278       -0.99809
C         10.92747       -2.62196       -0.05751
C          9.53596       -2.55727       -0.05596
C          8.87031       -1.78795       -1.00552
C          7.38829       -1.70758       -0.94893
O          6.82867       -2.41315       -0.11094
C          9.59861       -1.10019       -1.97067
C         11.03471       -1.15435       -1.97567
C         13.88785       -1.23981       -1.97005
C         15.32288       -1.28219       -1.96731
H          0.69784        0.62867        0.87156
H          0.21246       -1.01579        0.41426
H          0.55221        0.18916       -0.84006
H          2.64528       -1.02461        1.10941
H          2.75894       -0.04093       -1.80052
H          4.83415       -1.36731        0.09487
H          4.98836       -0.05622       -2.67477
H          9.11626        0.91833       -4.66515
H         11.51297        0.87039       -4.69520
H         13.54695        0.82625       -4.68003
H         15.94424        0.69795       -4.66302
H         19.94352       -1.66519       -0.88190
H         19.86522       -2.30136       -3.87287
H         19.66709       -3.46111       -2.55514
H         21.21078       -2.61937       -2.76403
H         20.33186        0.20193       -3.25240
H         21.42493       -0.15601       -1.92524
H         19.93639        0.75291       -1.61345
H         15.81398       -3.31627        0.71483
H         13.41280       -3.28843        0.73252
H         11.37419       -3.24139        0.71574
H          8.98047       -3.11051        0.70042
