69

C          0.99870       -0.30055       -0.28017
C          2.51613       -0.13220       -0.16277
C          3.14264        0.26543       -1.50271
N          2.88313        0.77886        0.94095
C          3.43895        0.20743        2.08601
O          3.65668       -0.99449        2.22014
C          3.77223        1.11462        3.21019
C          4.35188        0.57981        4.35550
C          4.66255        1.40845        5.43206
C          4.41295        2.80211        5.41770
C          4.71296        3.66195        6.52791
C          5.26815        3.19125        7.74191
C          5.54028        4.03372        8.81930
C          5.27721        5.39763        8.72705
C          5.53630        6.26209        9.90859
O          5.89900        5.69386       10.93803
N          5.29323        7.63694        9.77151
C          5.55589        8.52426       10.88765
C          4.78528        9.67598       11.09436
C          5.06176       10.57272       12.13901
C          6.13506       10.37767       13.02123
C          6.46962       11.36943       14.08075
C          6.13125       12.73195       13.94941
C          6.45131       13.67361       14.93474
C          7.13782       13.28057       16.07662
C          7.49290       11.94612       16.23600
C          7.15473       11.00434       15.25554
C          6.88414        9.20484       12.82812
C          6.59539        8.29300       11.79520
C          4.84578        8.20185        8.56801
O          4.76278        9.40572        8.32430
C          4.50526        7.28182        7.45980
C          3.96388        7.81691        6.29507
C          3.65763        6.98735        5.22148
C          3.88394        5.59236        5.25266
C          3.56640        4.73274        4.15136
C          2.98108        5.20603        2.95228
C          2.66289        4.36390        1.89110
C          2.92531        3.00230        1.98349
C          2.55805        2.12967        0.84429
O          1.97699        2.63731       -0.11187
C          3.51030        2.47973        3.13435
C          3.83302        3.34102        4.23787
C          4.44740        5.05366        6.44027
C          4.74548        5.91667        7.55158
H          0.75221       -1.06526       -1.02442
H          0.50133        0.62646       -0.58109
H          0.56952       -0.61135        0.67855
H          2.91656       -1.12735        0.06417
H          2.71349        1.18362       -1.91330
H          2.98459       -0.52441       -2.24535
H          4.22198        0.41670       -1.39560
H          4.56404       -0.48628        4.42374
H          5.11093        0.92004        6.29327
H          5.49721        2.13923        7.89155
H          5.95235        3.60786        9.73348
H          3.93390        9.90480       10.45732
H          4.40730       11.43552       12.23928
H          5.62100       13.09492       13.06035
H          6.16856       14.71453       14.80017
H          7.39641       14.01132       16.83794
H          8.03330       11.63100       17.12491
H          7.43590        9.96981       15.43606
H          7.73908        8.98164       13.46233
H          7.24784        7.42870       11.69938
H          3.77787        8.88664        6.20744
H          3.23835        7.47968        4.34835
H          2.74380        6.25663        2.80864
H          2.20589        4.78293        0.99578
