56

C          0.82473       -0.24302        0.11606
C          2.28542       -0.50071        0.31181
C          3.16687        0.46144        0.62324
N          4.55467        0.35401        0.80580
C          5.20757       -0.88724        0.86404
O          4.66621       -1.99198        0.87276
C          6.69053       -0.87879        0.95268
C          7.36822       -2.09498        0.96067
C          8.75961       -2.12292        1.02608
C          9.54128       -0.94500        1.07349
C         10.97390       -0.96200        1.13961
C         11.72851       -2.15716        1.23116
C         13.11971       -2.16070        1.30675
C         13.81946       -0.96024        1.26556
C         15.29677       -0.98596        1.38324
O         15.83086       -2.03583        1.72975
N         15.97601        0.20028        1.12029
C         17.45059        0.23801        1.19760
C         17.92236        0.34986        2.64957
C         18.15756       -0.91514        0.47760
C         15.32948        1.43656        1.06428
O         15.91552        2.51648        1.02551
C         13.84862        1.43625        1.07961
C         13.17727        2.65107        1.01018
C         11.78529        2.67594        1.01517
C         11.00314        1.49687        1.06932
C          9.57046        1.51314        1.07615
C          8.81800        2.71049        1.10501
C          7.42628        2.71819        1.09296
C          6.72319        1.51921        1.03529
C          5.24489        1.56492        0.98715
O          4.70541        2.66724        1.09698
C          7.40861        0.31053        1.01227
C          8.84506        0.29246        1.05458
C         11.69776        0.25948        1.11716
C         13.13236        0.24469        1.14932
H          0.54219       -0.47181       -0.91621
H          0.55334        0.79721        0.32201
H          0.24120       -0.88468        0.78312
H          2.58604       -1.53247        0.16289
H          2.77967        1.47668        0.71871
H          6.82151       -3.03614        0.91434
H          9.21588       -3.10939        1.02447
H         11.24793       -3.13135        1.26809
H         13.64865       -3.10817        1.39891
H         17.78115        1.14880        0.68171
H         17.62595       -0.52433        3.23808
H         17.49055        1.23377        3.13184
H         19.01243        0.44103        2.69851
H         18.10512       -1.85405        1.03660
H         19.22158       -0.68440        0.35281
H         17.72939       -1.08106       -0.51617
H         13.72864        3.58843        0.95385
H         11.32838        3.66038        0.95896
H          9.29789        3.68458        1.14865
H          6.89997        3.67147        1.11979
