56

C          0.97783        0.08116        0.05405
C          2.49783        0.08116        0.05405
C          3.80169        0.08116        0.05405
C          5.33398        0.07708        0.05158
C          6.53504        0.07453        0.04780
N          7.90928        0.07507        0.04238
C          8.59921       -1.14557        0.05847
O          8.03891       -2.24245        0.07078
C         10.07973       -1.12094        0.06199
C         10.77031       -2.32797        0.09310
C         12.16336       -2.33506        0.10665
C         12.93048       -1.14584        0.08364
C         14.36437       -1.14146        0.11762
C         15.13700       -2.32353        0.22700
C         16.52864       -2.30573        0.29183
C         17.21080       -1.09662        0.22173
C         18.68797       -1.09768        0.34617
O         19.23393       -2.12915        0.72727
N         19.35165        0.08961        0.05114
C         20.82527        0.15545        0.13776
C         21.28066        0.37143        1.58355
C         21.56245       -1.03012       -0.49427
C         18.68659        1.31373       -0.04788
O         19.25722        2.39988       -0.12551
C         17.20571        1.29335       -0.02883
C         16.51699        2.49641       -0.12733
C         15.12453        2.50223       -0.11979
C         14.35842        1.31463       -0.03157
C         12.92503        1.31164       -0.01677
C         12.15382        2.49797       -0.04364
C         10.76138        2.48605       -0.02861
C         10.07574        1.27658        0.00614
C          8.59574        1.29731        0.02015
O          8.03250        2.39276        0.01155
C         10.78071        0.07890        0.03253
C         12.21746        0.08136        0.03179
C         15.07085        0.08880        0.05047
C         16.50609        0.09468        0.07547
H          0.60466       -0.91274       -0.20815
H          0.60466        0.80518       -0.67560
H          0.60466        0.35105        1.04589
H         10.23337       -3.27576        0.11075
H         12.63330       -3.31486        0.13166
H         14.67147       -3.30371        0.28865
H         17.07163       -3.24327        0.40231
H         21.14403        1.03577       -0.43551
H         20.98328       -0.46262        2.22734
H         20.83794        1.28305        1.99975
H         22.36946        0.47465        1.63755
H         21.53149       -1.92527        0.13422
H         22.62123       -0.78349       -0.63287
H         21.14305       -1.28031       -1.47391
H         17.05522        3.43978       -0.20679
H         14.65441        3.47914       -0.19491
H         12.61955        3.47972       -0.06724
H         10.22123        3.43201       -0.04407
