22

C         -0.79635        1.05198        0.37301
C          0.59096        1.13989        0.52340
C          1.40232        0.07452        0.14412
C          0.82777       -1.07682       -0.38661
C         -0.55952       -1.16079       -0.53935
C         -1.40073       -0.09924       -0.16216
C         -2.86578       -0.18999       -0.32223
C         -3.57199       -1.33958        0.07362
C         -4.95904       -1.42750       -0.07911
C         -5.66883       -0.36375       -0.62848
C         -4.99271        0.78596       -1.02646
C         -3.60517        0.86993       -0.87600
H         -1.40863        1.89298        0.69206
H          1.03450        2.04032        0.94019
H          2.48052        0.14132        0.26192
H          1.45706       -1.91072       -0.68617
H         -0.98153       -2.06593       -0.97142
H         -3.04347       -2.17924        0.52038
H         -5.48253       -2.32665        0.23507
H         -6.74704       -0.43055       -0.74630
H         -5.54206        1.61858       -1.45783
H         -3.09940        1.77374       -1.20977
