45

C         -0.79015        0.21945        0.77101
C         -0.05005        0.80473       -0.25066
C          1.32357        0.56694       -0.33752
C          1.98577       -0.25510        0.58769
N          3.35739       -0.44177        0.43301
C          4.28005        0.23514        1.38588
C          3.86126        1.68827        1.68119
C          4.85364        2.38264        2.60959
C          5.04355        1.59754        3.90196
C          5.48360        0.16186        3.62423
C          4.50230       -0.56418        2.69056
S          5.17591       -2.24935        2.37900
C          4.01649       -2.80712        1.06183
C          4.55363       -4.13408        0.50274
C          3.68764       -4.65809       -0.64073
C          3.54737       -3.62565       -1.75302
C          2.99127       -2.30859       -1.21901
C          3.84652       -1.75838       -0.06145
C          1.22252       -0.83326        1.60665
C         -0.15399       -0.59956        1.69958
H         -1.85893        0.40067        0.84384
H         -0.53584        1.44574       -0.98081
H          1.89411        1.02906       -1.13996
H          5.25023        0.30680        0.87118
H          2.87153        1.71999        2.15289
H          3.78542        2.25431        0.74482
H          4.49631        3.39241        2.84098
H          5.81861        2.49358        2.10010
H          4.10481        1.58978        4.46939
H          5.79172        2.09623        4.52844
H          5.56617       -0.37114        4.57985
H          6.48826        0.18485        3.18091
H          3.55799       -0.69024        3.22860
H          3.05616       -3.01087        1.54480
H          4.58937       -4.89454        1.29302
H          5.57983       -4.00633        0.13262
H          2.69477       -4.92274       -0.25676
H          4.12924       -5.57605       -1.04483
H          2.88545       -4.01427       -2.53514
H          4.52474       -3.45039       -2.21896
H          1.95839       -2.48042       -0.89235
H          2.94901       -1.57680       -2.03487
H          4.84128       -1.57055       -0.49326
H          1.67873       -1.47648        2.34991
H         -0.72721       -1.05959        2.50017
