16

C         -1.21148       -0.10557        0.01051
C         -0.79899        1.20994        0.00206
S          0.90335        1.34806       -0.01589
C          1.09279       -0.35397       -0.01245
C         -0.11421       -1.02435        0.00209
C         -0.28872       -2.49164        0.00842
C         -1.49578       -3.16206        0.00135
S         -1.30649       -4.86407        0.01200
C          0.39588       -4.72594        0.02623
C          0.80846       -3.41045        0.02295
H         -2.25895       -0.37851        0.02271
H         -1.41698        2.09739        0.00571
H          2.09145       -0.76605       -0.02201
H         -2.49443       -2.75001       -0.01019
H          1.01382       -5.61338        0.03644
H          1.85597       -3.13749        0.03126
