21

C          2.71094        0.47798       -0.00002
C          2.97437       -0.88411        0.00000
S          1.53289       -1.84561        0.00001
C          0.58251       -0.48485       -0.00001
C          1.30371        0.68967       -0.00002
C          0.64690        1.90356       -0.00004
C         -0.73086        1.94088       -0.00004
C         -1.25114        3.26543       -0.00005
C         -0.20326        4.17460       -0.00005
S          1.35017        3.40699       -0.00004
C         -1.45372        0.76512       -0.00003
C         -0.79715       -0.44672       -0.00001
C         -1.68410       -1.55956        0.00001
C         -2.99541       -1.10666        0.00001
S         -3.10735        0.62246       -0.00003
H          3.48242        1.23756       -0.00002
H          3.93923       -1.37253        0.00001
H         -2.29470        3.55376       -0.00005
H         -0.26270        5.25441       -0.00005
H         -1.41202       -2.60748        0.00003
H         -3.90083       -1.69804        0.00003
