40

C          2.43351       -0.49449        0.75837
C          2.97151        0.03247       -0.57252
C          2.09051       -0.39401       -1.74758
C          3.15844        1.57155       -0.53714
C          2.16436        2.52732       -0.35786
C          2.58217        3.84687       -0.36336
C          3.94743        4.24022       -0.54207
C          4.94160        3.28442       -0.72073
C          4.52402        1.96481       -0.71355
C          5.26099        0.74884       -0.86219
S          6.86992        0.39047       -1.09692
C          6.50119       -1.30033       -1.10782
C          5.14880       -1.55043       -0.93092
C          4.42879       -0.33868       -0.78747
C          4.13429        5.77931       -0.50722
C          5.02585        6.20636        0.65946
C          4.65980        6.30625       -1.84325
C          2.67872        6.14998       -0.28014
C          1.96064        7.36119       -0.12307
C          0.60951        7.11073        0.06272
S          0.23952        5.42028        0.04293
C          1.84641        5.06250       -0.20624
H          3.05683       -0.17660        1.60303
H          2.40740       -1.59025        0.76591
H          1.41600       -0.13448        0.94825
H          1.06356       -0.03023       -1.62925
H          2.05087       -1.48602       -1.83346
H          2.46840       -0.00486       -2.70092
H          1.12421        2.25918       -0.22078
H          5.98190        3.55252       -0.85672
H          7.29743       -2.01910       -1.24329
H          4.72095       -2.54470       -0.90804
H          6.05207        5.84389        0.53112
H          4.65754        5.81640        1.61618
H          5.06517        7.29838        0.74526
H          5.67523        5.94573       -2.04303
H          4.68620        7.40201       -1.85096
H          4.02822        5.98880       -2.68196
H          2.38907        8.35529       -0.14187
H         -0.18507        7.82903        0.20994
