26

C          0.92499       -0.16572        0.01817
C         -0.27497       -0.13052        0.01842
C         -1.69368        0.00003        0.01870
N         -2.48135       -1.05072        0.01888
C         -3.80584       -0.63920        0.01912
C         -4.93639       -1.48185        0.01937
C         -6.22046       -0.92528        0.01959
C         -6.39101        0.45557        0.01958
C         -5.28742        1.31330        0.01934
C         -4.00348        0.74359        0.01912
S         -2.47205        1.52686        0.01880
C          2.34733       -0.11740        0.01786
C          3.24385       -1.20421        0.01690
C          4.53795       -0.78797        0.01681
S          5.95384       -1.66948        0.01581
C          6.85302       -0.10218        0.01657
C          5.95086        0.97830        0.01756
C          4.66010        0.55516        0.01766
S          3.25019        1.44260        0.01865
H         -4.80083       -2.55893        0.01938
H         -7.08962       -1.57912        0.01978
H         -7.39493        0.87547        0.01976
H         -5.42059        2.39096        0.01933
H          2.92136       -2.23830        0.01630
H          7.93409       -0.10743        0.01624
H          6.27110        2.01290        0.01814
