34

C         -2.13974       -1.05412        0.14562
C         -2.44516        0.30182        0.20722
C         -1.43254        1.26616        0.19080
C         -0.09972        0.82916        0.10794
S          1.34655        1.75568        0.06454
C          2.28746        0.31603       -0.04336
C          3.75996        0.35236       -0.16777
C          4.53491        1.49091        0.09120
C          5.93027        1.46954       -0.06332
C          6.59836        0.31189       -0.48738
C          8.06445        0.26816       -0.67384
C          8.90826       -0.81611       -0.50402
C         10.26222       -0.48818       -0.81293
S         11.77273       -1.36288       -0.81672
C         12.59624        0.05034       -1.32842
C         11.77871        1.14457       -1.49450
C         10.42245        0.81179       -1.19655
S          8.91104        1.67351       -1.20767
C          5.82582       -0.83205       -0.72760
C          4.43357       -0.81209       -0.56723
N          1.58311       -0.79904       -0.04424
C          0.22955       -0.52370        0.04283
C         -0.80879       -1.47668        0.06409
H         -2.93798       -1.79252        0.15931
H         -3.48468        0.61774        0.26838
H         -1.67203        2.32406        0.23804
H          4.07925        2.42069        0.42344
H          6.48201        2.37977        0.16166
H          8.58762       -1.79676       -0.17596
H         13.66559        0.00508       -1.48551
H         12.12171        2.12114       -1.81109
H          6.29005       -1.75777       -1.06028
H          3.87038       -1.72250       -0.77011
H         -0.56526       -2.53329        0.01418
