63

C          1.01665       -0.11116       -0.27425
C          2.53342        0.06417       -0.16299
C          3.16028        0.42609       -1.51237
N          2.90185        1.00550        0.91424
C          3.48621        0.46737        2.06040
O          3.71864       -0.72884        2.21953
C          3.83513        1.40462        3.15328
C          4.44791        0.90125        4.29487
C          4.77823        1.75760        5.34175
C          4.51353        3.14782        5.30103
C          4.83849        4.03407        6.38023
C          5.45115        3.59340        7.57615
C          5.75414        4.45866        8.62404
C          5.45606        5.81457        8.52250
C          5.78772        6.70292        9.66461
O          6.34261        6.17089       10.62492
N          5.45132        8.06077        9.55471
C          5.68798        8.97995       10.59720
C          6.20144        8.74719       11.81644
C          6.38978        9.75079       12.81715
C          6.84581        9.57873       14.15058
C          6.91217       10.74434       14.84230
S          7.37949       11.03165       16.41745
C          7.04951       12.78249       16.12514
C          6.59964       12.98022       14.80574
C          6.53494       11.81187       14.11500
S          6.06792       11.52891       12.54358
C          4.87015        8.58953        8.38746
O          4.58942        9.77808        8.22549
C          4.56828        7.66017        7.27471
C          3.97504        8.16642        6.12241
C          3.66528        7.31605        5.06389
C          3.92959        5.92671        5.10257
C          3.60243        5.04098        4.02274
C          2.98406        5.48043        2.82736
C          2.65661        4.61111        1.78968
C          2.93952        3.25469        1.90367
C          2.56534        2.35179        0.78930
O          1.97147        2.83199       -0.17291
C          3.55556        2.76497        3.05245
C          3.89323        3.65475        4.12837
C          4.54203        5.41903        6.27905
C          4.85816        6.30454        7.36715
H          0.77229       -0.90076       -0.99282
H          0.51682        0.80391       -0.60559
H          0.58862       -0.39188        0.69425
H          2.93474       -0.92434        0.09014
H          2.73435        1.33588       -1.94427
H          2.99971       -0.38152       -2.23504
H          4.24025        0.57611       -1.40900
H          4.67199       -0.16086        4.38300
H          5.25228        1.29239        6.20184
H          5.71254        2.55028        7.73277
H          6.22394        4.05719        9.52118
H          5.39212        9.99655       10.34488
H          6.49804        7.75051       12.12125
H          7.10670        8.60782       14.55478
H          7.20898       13.49512       16.92217
H          6.34206       13.95565       14.41232
H          3.74326        9.22735        6.03583
H          3.20157        7.78421        4.19962
H          2.73060        6.52509        2.66777
H          2.17627        5.00499        0.89510
