46

C         -0.78268        1.11794        0.26051
C          0.61051        1.19479        0.14735
C          1.39652        0.06451       -0.14046
C          2.88928        0.13001       -0.26453
C          3.68625       -1.03409       -0.26241
C          5.08505       -1.00690       -0.41548
C          5.83993       -2.18807       -0.45623
C          7.22673       -2.14791       -0.61683
C          7.89636       -0.92281       -0.72783
C          9.28855       -0.86242       -0.88501
C          9.93784        0.36743       -0.98569
C          9.20396        1.55218       -0.93186
C          7.80906        1.52356       -0.78319
C          7.05080        2.70058       -0.73523
C          5.65971        2.65001       -0.60361
C          4.98830        1.42156       -0.50681
C          3.58385        1.35048       -0.38914
C          5.74116        0.23207       -0.53389
C          7.15048        0.27732       -0.68086
C          0.69047       -1.14912       -0.30522
C         -0.70537       -1.26407       -0.14950
C         -1.39040       -2.56122       -0.27014
C         -2.70984       -2.88182       -0.67376
C         -2.95620       -4.21723       -0.63519
S         -4.33573       -5.06674       -1.03325
C         -3.44689       -6.58109       -0.60926
C         -2.13960       -6.27650       -0.18594
C         -1.90110       -4.93930       -0.21290
S         -0.52232       -4.10100        0.18890
C         -1.43472       -0.10463        0.11993
H         -1.35720        2.01656        0.47286
H          1.06037        2.17165        0.29992
H          3.22777       -2.01115       -0.13454
H          5.35122       -3.15662       -0.37221
H          7.77889       -3.08411       -0.65317
H          9.87820       -1.77522       -0.92957
H         11.01748        0.40216       -1.10632
H          9.72989        2.50100       -1.01089
H          7.53699        3.67121       -0.80510
H          5.10352        3.58435       -0.57498
H          3.03683        2.28921       -0.40767
H          1.23552       -2.04615       -0.58157
H         -3.42773       -2.13427       -0.98687
H         -3.94367       -7.53638       -0.70519
H         -1.42718       -7.03406        0.11653
H         -2.51470       -0.13848        0.23864
