79

C          1.06251       -0.38941       -0.26004
C          2.57460       -0.17665       -0.14666
C          3.21252        0.06829       -1.51752
N          2.91316        0.87057        0.83889
C          3.50609        0.46150        2.03354
O          3.76893       -0.70742        2.30776
C          3.82718        1.50955        3.03170
C          4.44062        1.13758        4.22314
C          4.74607        2.10214        5.18162
C          4.45914        3.47609        4.99730
C          4.75703        4.47608        5.98373
C          5.33802        4.17763        7.24018
C          5.60008        5.15731        8.19845
C          5.31009        6.49293        7.93372
C          5.52536        7.50758        9.00151
O          5.84314        7.06990       10.10639
N          5.29688        8.85436        8.67616
C          5.50764        9.89818        9.67076
C          4.85382       11.13531        9.56697
C          5.09629       12.18663       10.46415
C          5.98138       12.05081       11.54090
C          6.28356       13.19543       12.43708
C          5.33336       14.19984       12.69678
C          5.64821       15.33748       13.45312
C          6.92489       15.50372       13.99480
C          7.29017       16.70688       14.74389
C          8.01986       16.86394       15.94506
C          8.18841       18.17024       16.27697
S          8.97249       18.85434       17.58068
C          8.53752       20.47348       16.90876
C          7.81037       20.32594       15.71239
C          7.63201       19.01816       15.38981
S          6.85261       18.34241       14.08273
C          7.86531       14.48925       13.79375
C          7.55160       13.36100       13.02106
C          6.58964       10.79536       11.68492
C          6.36532        9.74743       10.76845
C          4.93494        9.24045        7.37598
O          4.98064       10.38240        6.91824
C          4.53354        8.18173        6.42671
C          3.95891        8.55536        5.21604
C          3.62554        7.58772        4.27473
C          3.86890        6.21113        4.48541
C          3.54169        5.21082        3.51434
C          2.91582        5.51457        2.28142
C          2.59929        4.53789        1.34238
C          2.90460        3.20630        1.59735
C          2.54911        2.18994        0.58023
O          1.94772        2.55990       -0.42479
C          3.52455        2.84703        2.79178
C          3.84405        3.84775        3.77125
C          4.46444        5.83914        5.72043
C          4.77012        6.84325        6.70218
H          0.84219       -1.24924       -0.90169
H          0.55169        0.47926       -0.68608
H          0.62482       -0.58219        0.72540
H          2.98949       -1.12868        0.20486
H          2.77856        0.92743       -2.03668
H          3.07279       -0.80495       -2.16411
H          4.28869        0.24510       -1.41709
H          4.68489        0.09440        4.41893
H          5.22382        1.73795        6.08740
H          5.58981        3.15805        7.52083
H          6.02352        4.86036        9.15724
H          4.12847       11.33134        8.78119
H          4.59077       13.13100       10.27365
H          4.32288       14.12152       12.30126
H          4.87895       16.09145       13.60502
H          8.39305       16.02495       16.51905
H          8.84505       21.36803       17.43206
H          7.44972       21.16849       15.13548
H          8.86967       14.58044       14.20169
H          8.33832       12.62898       12.85213
H          7.27022       10.60379       12.51221
H          6.92789        8.83290       10.93365
H          3.77166        9.60404        4.98878
H          3.18129        7.95632        3.35427
H          2.64503        6.53230        2.01382
H          2.11247        4.82918        0.41279
