63

C          1.02500        0.32668        0.10895
C          2.52493        0.05570       -0.04586
C          3.29368        1.37010       -0.21618
N          3.00933       -0.83053        1.03401
C          2.79839       -2.19790        0.83856
O          2.34114       -2.67964       -0.19613
C          3.11428       -3.10985        1.96126
C          2.87645       -4.47029        1.80620
C          3.16117       -5.34836        2.84837
C          3.70896       -4.91571        4.08010
C          3.99503       -5.81139        5.16174
C          3.72079       -7.19865        5.10337
C          3.99919       -8.06179        6.15984
C          4.57356       -7.57019        7.32689
C          4.85980       -8.51329        8.43095
O          4.56800       -9.69930        8.27087
N          5.44684       -8.01404        9.60186
C          5.72489       -8.87509       10.63545
C          5.96250       -9.62731       11.54093
C          6.25424      -10.58161       12.70222
C          6.46900      -11.32144       13.62296
C          6.70781      -12.18852       14.72622
C          6.57207      -13.59116       14.74447
C          6.86193      -14.10898       15.96680
S          6.84160      -15.68952       16.49830
C          7.35288      -15.08083       18.12032
C          7.49499      -13.68033       18.09421
C          7.21090      -13.16855       16.86823
S          7.22737      -11.58711       16.34182
C          5.74929       -6.65196        9.74016
O          6.26094       -6.17007       10.75167
C          5.43832       -5.74115        8.61533
C          5.73129       -4.38797        8.74804
C          5.44362       -3.50659        7.70835
C          4.85627       -3.93029        6.49226
C          4.53778       -3.02816        5.42357
C          4.75404       -1.63071        5.50315
C          4.39756       -0.75790        4.47723
C          3.82994       -1.25428        3.30923
C          3.38480       -0.30007        2.26506
O          3.34379        0.89159        2.55733
C          3.64087       -2.62431        3.15422
C          3.96804       -3.52649        4.22185
C          4.57233       -5.31576        6.36068
C          4.86451       -6.21563        7.44161
H          0.65261        0.94461       -0.71470
H          0.80678        0.84049        1.05085
H          0.45585       -0.60953        0.10571
H          2.66026       -0.48625       -0.99105
H          3.02700        2.11036        0.54455
H          3.05304        1.82224       -1.18518
H          4.37512        1.20626       -0.17940
H          2.46101       -4.85948        0.87782
H          2.94135       -6.39552        2.65856
H          3.26865       -7.65369        4.22601
H          3.76115       -9.12007        6.05895
H          6.26746      -14.16727       13.87935
H          7.49979      -15.78172       18.93016
H          7.79388      -13.10313       18.96041
H          6.18307       -4.00348        9.66182
H          5.69852       -2.46478        7.88469
H          5.18979       -1.17173        6.38674
H          4.55867        0.31165        4.60461
