67

C          1.11626       -0.39551        0.59383
C          2.47730       -0.12438       -0.05482
C          2.49484       -0.58257       -1.51521
N          2.94618        1.27051        0.07114
C          4.31749        1.44765        0.25855
O          5.12229        0.52337        0.35954
C          4.82730        2.83653        0.31092
C          6.18313        3.04268        0.53358
C          6.68770        4.33852        0.58643
C          5.86744        5.48231        0.43091
C          6.38171        6.81855        0.46964
C          7.75689        7.10191        0.62980
C          8.25173        8.40155        0.66049
C          7.38593        9.48477        0.53887
C          7.95679       10.85274        0.57242
O          9.17721       10.92465        0.70963
N          7.07072       11.93449        0.45084
C          7.51775       13.26988        0.46562
C          8.77723       13.72507        0.55829
C          9.12458       15.13488        0.56605
C         10.40196       15.53864        0.65589
C         10.83402       16.89663        0.67545
C         12.16382       17.38642        0.75072
C         12.22814       18.74161        0.75460
S         13.55350       19.75106        0.83163
C         12.40950       21.14594        0.76843
C         11.08125       20.68465        0.69184
C         11.01831       19.32723        0.68620
S          9.69479       18.32067        0.61035
C          5.68267       11.74630        0.31778
O          4.86136       12.66078        0.23364
C          5.16773       10.35660        0.27223
C          3.80050       10.15063        0.11385
C          3.28950        8.85507        0.05519
C          4.11159        7.70742        0.15696
C          3.60012        6.36857        0.07763
C          2.23352        6.07649       -0.15214
C          1.75260        4.77241       -0.25484
C          2.62257        3.69759       -0.10956
C          2.09404        2.32049       -0.26285
O          0.95530        2.18317       -0.69867
C          3.97200        3.92277        0.14612
C          4.48066        5.26311        0.22166
C          5.50270        7.92646        0.33825
C          6.02233        9.26642        0.38406
H          0.95103       -1.47511        0.68391
H          0.28355        0.00148        0.00624
H          1.06644        0.03826        1.59780
H          3.18826       -0.76108        0.48727
H          1.80177        0.00027       -2.13022
H          2.21519       -1.63827       -1.59470
H          3.49548       -0.46729       -1.94629
H          6.86007        2.19968        0.66392
H          7.75709        4.42249        0.76001
H          8.49652        6.31190        0.72687
H          9.32365        8.55509        0.77929
H          6.71938       14.00851        0.38645
H          9.62182       13.04859        0.63268
H          8.30452       15.84455        0.49775
H         11.18923       14.78942        0.72058
H         13.02412       16.72982        0.80024
H         12.79792       22.15441        0.79245
H         10.22954       21.35151        0.64457
H          3.11723       10.99494        0.02979
H          2.21299        8.77351       -0.07136
H          1.49709        6.86582       -0.27844
H          0.69473        4.60641       -0.45336
