163

C          1.08357       -0.03626        0.04124
C          2.60357       -0.03626        0.04124
C          3.11023       -1.23101        0.83261
C          4.04650       -1.36723        2.34492
C          4.74116       -0.30325        3.17907
C          3.92382       -3.08124        2.57471
C          4.50195       -3.92702        3.69758
C          3.93558       -3.45842        5.02801
C          3.38120       -4.37139        5.96786
C          2.69558       -3.87502        7.08861
C          2.79919       -2.61936        7.41132
C          2.04736       -2.08119        8.61777
C          1.40244       -1.61954        9.65266
C          0.65062       -1.08137       10.85912
C         -0.12669       -1.85423       11.61957
C         -0.72137       -1.29466       12.78465
C         -0.73139        0.09988       12.95113
C          0.02322        0.84994       12.20312
N          0.00332        2.31020       12.37095
C          0.20904        3.12796       11.26657
O          0.39698        2.60496       10.12362
C          0.21152        4.48828       11.39582
C          0.42606        5.32370       10.24247
C          0.42301        6.81807       10.42294
C          0.20529        7.37014       11.73519
C          0.19761        8.76023       11.92020
C          0.40360        9.62394       10.81892
C          0.40245       10.96497       10.96133
C          0.18665       11.57591       12.26843
C          0.18245       12.96759       12.42769
O          0.37413       13.72533       11.42555
N         -0.02843       13.50617       13.66398
C         -0.04403       14.96715       13.82589
C          1.05020       15.38108       14.79631
C          0.19654       15.62880       12.47877
C         -0.22855       12.69126       14.77143
O         -0.41159       13.21783       15.91353
C         -0.23091       11.32981       14.64724
C         -0.44680       10.49788       15.80286
C         -0.43795        8.99873       15.61193
C         -0.22020        8.44710       14.29950
C         -0.21277        7.06396       14.11663
C         -0.42515        6.16950       15.25165
C         -0.42054        4.83090       15.08958
C         -0.20414        4.23715       13.77485
C         -0.20088        2.84564       13.60934
O         -0.38758        2.08447       14.60982
C          0.00514        5.06536       12.65101
C          0.00174        6.52371       12.82408
C         -0.01752        9.29242       13.21551
C         -0.02310       10.75064       13.39530
C          0.85517        0.26788       11.23746
C          3.60302       -1.76204        6.64823
C          4.04416       -2.17260        5.36672
C          4.13329       -5.38477        3.47522
C          2.66365       -5.27361        3.34770
H          2.38619       -4.24882        3.21457
C          2.19297       -6.07384        2.14417
C          2.01673       -5.82717        4.61850
H          1.55107       -5.02914        5.15812
C          3.08199       -6.47388        5.48879
C          2.43929       -7.02400        6.75160
C          3.50455       -7.67070        7.62188
O          4.71621       -7.68412        7.23864
O          3.14591       -8.25987        8.86312
C          4.14109       -8.86403        9.67615
C          1.03278       -6.80183        4.26699
C          0.37530       -7.39408        5.38853
C         -0.20561       -8.75043        4.98111
C          0.54568       -9.79564        5.60258
O          1.36210       -9.58991        6.55458
C          0.29621      -11.09287        5.05711
C          1.51242      -11.98925        5.29983
C          2.22221      -11.54773        6.56934
C          2.40903      -11.88489        4.19154
C          3.57153      -12.70860        4.30570
C          4.52218      -12.41151        3.14388
C          5.09343      -11.11245        3.31589
C          3.96348      -10.11614        3.51833
C          4.54324       -8.72340        3.70421
C          5.88524      -10.67549        2.20950
C          6.99022      -11.68563        1.94672
C          6.50458       -9.31446        2.53254
C          1.91101       -2.94511       -0.60420
C          2.75007       -2.55153        0.60058
N          3.18484       -3.48585        1.50669
Zn         5.82319       -7.03868        2.85243
N          1.68488      -12.27334        2.97269
C         -0.92365      -11.70007        5.73065
N          4.84983       -5.98104        2.32763
N          5.58813       -8.27759        2.17835
H          0.72691        0.80478       -0.51584
H          0.72691        0.02567        1.04815
H          0.72690       -0.93923       -0.40858
H          2.96024        0.86671        0.49106
H          2.96024       -0.09818       -0.96566
H          4.60220        0.65462        2.72292
H          5.78689       -0.52219        3.23740
H          4.32338       -0.29320        4.16409
H          5.56712       -3.82609        3.70799
H          3.48192       -5.38882        5.82739
H          2.10938       -4.50683        7.65625
H         -0.29372       -2.84084       11.36711
H         -1.14143       -1.90771       13.50072
H         -1.33772        0.52955       13.66721
H          0.57880        4.90623        9.31113
H          0.57542        7.44090        9.61431
H          0.55866        9.21759        9.88304
H          0.55594       11.56578       10.13641
H         -0.99503       15.27341       14.20892
H          2.00119       15.07482       14.41327
H          0.88085       14.91531       15.74461
H          1.03884       16.44451       14.91416
H          1.14753       15.32253       12.09574
H          0.18519       16.69223       12.59662
H         -0.57374       15.33742       11.79565
H         -0.60304       10.91348       16.73447
H         -0.58735        8.37282       16.41873
H         -0.58093        6.56766       16.19091
H         -0.57209        4.21849       15.90629
H          1.61253        0.81921       10.80449
H          3.87198       -0.83684        7.01795
H          4.44323       -1.48814        4.70545
H          4.42082       -6.06608        4.24855
H          2.64711       -5.68428        1.25710
H          1.12866       -6.00097        2.06151
H          2.47180       -7.09958        2.26669
H          3.81868       -5.74401        5.75237
H          3.54762       -7.27175        4.94888
H          1.70260       -7.75387        6.48802
H          1.97366       -6.22613        7.29150
H          3.68866       -9.25128       10.56510
H          4.87777       -8.13415        9.93973
H          4.60672       -9.66190        9.13624
H          0.14494       -7.16842        3.79554
H          0.50274       -6.51717        5.98827
H         -0.15242       -8.85649        3.91771
H         -1.22698       -8.81003        5.29441
H          0.11780      -11.00989        4.00536
H          1.19209      -13.00469        5.40549
H          2.54269      -10.53230        6.46405
H          3.07275      -12.17443        6.73880
H          1.55083      -11.62566        7.39885
H          2.74932      -10.87085        4.16259
H          3.28328      -13.73862        4.27646
H          4.06519      -12.50300        5.23249
H          4.50903      -13.40587        2.74895
H          5.74710      -11.17072        4.16101
H          3.40051      -10.38699        4.38701
H          3.32290      -10.12437        2.66130
H          5.18381       -8.71519        4.56124
H          3.74781       -8.02205        3.84672
H          5.10621       -8.45255        2.83553
H          5.26725      -10.58919        1.34028
H          7.60840      -11.77217        2.81578
H          7.58317      -11.35823        1.11840
H          6.55693      -12.63758        1.72101
H          7.40563       -9.64856        3.00305
H          0.84623       -2.97767       -0.50383
H          1.83261       -2.53413       -1.58901
H         -1.68949      -12.22137        6.26603
H          5.26289       -5.70942        1.43544
H          5.16591       -7.67410        1.47272
